/*---------------------------------------------------------------------------*\
| =========                 |                                                 |
| \\      /  F ield         | OpenFOAM: The Open Source CFD Toolbox           |
|  \\    /   O peration     | Version:  4.0                                   |
|   \\  /    A nd           | Web:      www.OpenFOAM.org                      |
|    \\/     M anipulation  |                                                 |
\*---------------------------------------------------------------------------*/
Build  : 4.0-665f1db4c1f1
Exec   : icoFoam
Date   : Jun 15 2017
Time   : 16:09:07
Host   : "5a1a38543cac"
PID    : 146
Case   : //scratch
nProcs : 1
sigFpe : Enabling floating point exception trapping (FOAM_SIGFPE).
fileModificationChecking : Monitoring run-time modified files using timeStampMaster
allowSystemOperations : Allowing user-supplied system call operations

// * * * * * * * * * * * * * * * * * * * * * * * * * * * * * * * * * * * * * //
Create time

Create mesh for time = 0


PISO: Operating solver in PISO mode

Reading transportProperties

Reading field p

Reading field U

Reading/calculating face flux field phi


Starting time loop

Time = 0.05

Courant Number mean: 0.0014855 max: 0.288675
smoothSolver:  Solving for Ux, Initial residual = 1, Final residual = 2.59484e-07, No Iterations 1
smoothSolver:  Solving for Uy, Initial residual = 1, Final residual = 2.75887e-06, No Iterations 1
DICPCG:  Solving for p, Initial residual = 1, Final residual = 0.0354101, No Iterations 62
DICPCG:  Solving for p, Initial residual = 0.0978094, Final residual = 0.00390625, No Iterations 3
DICPCG:  Solving for p, Initial residual = 0.0094306, Final residual = 0.000384136, No Iterations 48
time step continuity errors : sum local = 0.000225095, global = -1.04579e-05, cumulative = -1.04579e-05
DICPCG:  Solving for p, Initial residual = 0.00287428, Final residual = 0.000119365, No Iterations 14
DICPCG:  Solving for p, Initial residual = 0.000491499, Final residual = 2.39054e-05, No Iterations 16
DICPCG:  Solving for p, Initial residual = 8.64676e-05, Final residual = 9.27253e-07, No Iterations 57
time step continuity errors : sum local = 5.2476e-07, global = -6.57119e-09, cumulative = -1.04644e-05
ExecutionTime = 0.02 s  ClockTime = 0 s

Time = 0.1

Courant Number mean: 0.296274 max: 0.875975
smoothSolver:  Solving for Ux, Initial residual = 0.414376, Final residual = 1.97907e-06, No Iterations 3
smoothSolver:  Solving for Uy, Initial residual = 0.426059, Final residual = 5.09277e-06, No Iterations 3
DICPCG:  Solving for p, Initial residual = 0.0279858, Final residual = 0.000806835, No Iterations 60
DICPCG:  Solving for p, Initial residual = 0.326613, Final residual = 0.0132699, No Iterations 3
DICPCG:  Solving for p, Initial residual = 0.0421186, Final residual = 0.00153206, No Iterations 48
time step continuity errors : sum local = 0.000199441, global = 7.84886e-06, cumulative = -2.61559e-06
DICPCG:  Solving for p, Initial residual = 0.111553, Final residual = 0.00504184, No Iterations 55
DICPCG:  Solving for p, Initial residual = 0.463101, Final residual = 0.0178924, No Iterations 3
DICPCG:  Solving for p, Initial residual = 0.0687028, Final residual = 7.11825e-07, No Iterations 73
time step continuity errors : sum local = 9.76832e-09, global = -4.42709e-11, cumulative = -2.61563e-06
ExecutionTime = 0.02 s  ClockTime = 0 s

Time = 0.15

Courant Number mean: 0.296561 max: 0.890518
smoothSolver:  Solving for Ux, Initial residual = 0.0319697, Final residual = 9.43093e-06, No Iterations 2
smoothSolver:  Solving for Uy, Initial residual = 0.0251452, Final residual = 7.91125e-06, No Iterations 2
DICPCG:  Solving for p, Initial residual = 0.308774, Final residual = 0.0133747, No Iterations 4
DICPCG:  Solving for p, Initial residual = 0.0429705, Final residual = 0.00184889, No Iterations 54
DICPCG:  Solving for p, Initial residual = 0.0267184, Final residual = 0.00103259, No Iterations 5
time step continuity errors : sum local = 9.85367e-06, global = 2.6546e-07, cumulative = -2.35017e-06
DICPCG:  Solving for p, Initial residual = 0.0339167, Final residual = 0.00167394, No Iterations 40
DICPCG:  Solving for p, Initial residual = 0.00842399, Final residual = 0.000361312, No Iterations 21
DICPCG:  Solving for p, Initial residual = 0.00179468, Final residual = 8.30731e-07, No Iterations 65
time step continuity errors : sum local = 7.67313e-09, global = -6.62123e-12, cumulative = -2.35018e-06
ExecutionTime = 0.03 s  ClockTime = 0 s

Time = 0.2

Courant Number mean: 0.296668 max: 0.903224
smoothSolver:  Solving for Ux, Initial residual = 0.0212675, Final residual = 7.32096e-06, No Iterations 2
smoothSolver:  Solving for Uy, Initial residual = 0.0167269, Final residual = 4.72904e-06, No Iterations 2
DICPCG:  Solving for p, Initial residual = 0.168141, Final residual = 0.00661215, No Iterations 3
DICPCG:  Solving for p, Initial residual = 0.0212519, Final residual = 0.000997926, No Iterations 8
DICPCG:  Solving for p, Initial residual = 0.00365633, Final residual = 0.000178631, No Iterations 52
time step continuity errors : sum local = 1.36676e-06, global = -4.939e-08, cumulative = -2.39957e-06
DICPCG:  Solving for p, Initial residual = 0.0173092, Final residual = 0.000820781, No Iterations 5
DICPCG:  Solving for p, Initial residual = 0.00304269, Final residual = 0.000137023, No Iterations 10
DICPCG:  Solving for p, Initial residual = 0.000462245, Final residual = 7.8118e-07, No Iterations 63
time step continuity errors : sum local = 6.11658e-09, global = -1.11254e-10, cumulative = -2.39968e-06
ExecutionTime = 0.03 s  ClockTime = 0 s

Time = 0.25

Courant Number mean: 0.29676 max: 0.90801
smoothSolver:  Solving for Ux, Initial residual = 0.0157125, Final residual = 5.41633e-06, No Iterations 2
smoothSolver:  Solving for Uy, Initial residual = 0.0120073, Final residual = 3.70932e-06, No Iterations 2
DICPCG:  Solving for p, Initial residual = 0.13242, Final residual = 0.00477156, No Iterations 3
DICPCG:  Solving for p, Initial residual = 0.0160545, Final residual = 0.00056865, No Iterations 7
DICPCG:  Solving for p, Initial residual = 0.0025981, Final residual = 0.000124712, No Iterations 39
time step continuity errors : sum local = 8.58124e-07, global = -2.37597e-08, cumulative = -2.42344e-06
DICPCG:  Solving for p, Initial residual = 0.0129527, Final residual = 0.000473802, No Iterations 5
DICPCG:  Solving for p, Initial residual = 0.00210981, Final residual = 0.000102912, No Iterations 43
DICPCG:  Solving for p, Initial residual = 0.000458235, Final residual = 9.46941e-07, No Iterations 62
time step continuity errors : sum local = 6.51993e-09, global = -2.02273e-11, cumulative = -2.42346e-06
ExecutionTime = 0.04 s  ClockTime = 0 s

Time = 0.3

Courant Number mean: 0.296827 max: 0.912289
smoothSolver:  Solving for Ux, Initial residual = 0.0120359, Final residual = 4.89487e-06, No Iterations 2
smoothSolver:  Solving for Uy, Initial residual = 0.00905579, Final residual = 3.20371e-06, No Iterations 2
DICPCG:  Solving for p, Initial residual = 0.113798, Final residual = 0.00372351, No Iterations 3
DICPCG:  Solving for p, Initial residual = 0.0138332, Final residual = 0.000672611, No Iterations 8
DICPCG:  Solving for p, Initial residual = 0.00219464, Final residual = 9.01911e-05, No Iterations 53
time step continuity errors : sum local = 5.56822e-07, global = -5.30344e-09, cumulative = -2.42877e-06
DICPCG:  Solving for p, Initial residual = 0.0110882, Final residual = 0.000531724, No Iterations 4
DICPCG:  Solving for p, Initial residual = 0.00173894, Final residual = 8.4426e-05, No Iterations 44
DICPCG:  Solving for p, Initial residual = 0.000528696, Final residual = 8.28033e-07, No Iterations 61
time step continuity errors : sum local = 5.07292e-09, global = -1.72514e-10, cumulative = -2.42894e-06
ExecutionTime = 0.04 s  ClockTime = 0 s

Time = 0.35

Courant Number mean: 0.296873 max: 0.916419
smoothSolver:  Solving for Ux, Initial residual = 0.00974684, Final residual = 4.38561e-06, No Iterations 2
smoothSolver:  Solving for Uy, Initial residual = 0.00721223, Final residual = 2.90183e-06, No Iterations 2
DICPCG:  Solving for p, Initial residual = 0.103479, Final residual = 0.00359544, No Iterations 3
DICPCG:  Solving for p, Initial residual = 0.0126721, Final residual = 0.000553468, No Iterations 31
DICPCG:  Solving for p, Initial residual = 0.00291605, Final residual = 0.000133849, No Iterations 9
time step continuity errors : sum local = 7.28754e-07, global = -1.42265e-08, cumulative = -2.44316e-06
DICPCG:  Solving for p, Initial residual = 0.00979522, Final residual = 0.000321785, No Iterations 5
DICPCG:  Solving for p, Initial residual = 0.00147059, Final residual = 6.8162e-05, No Iterations 44
DICPCG:  Solving for p, Initial residual = 0.000423804, Final residual = 7.1476e-07, No Iterations 63
time step continuity errors : sum local = 3.92539e-09, global = 2.73136e-11, cumulative = -2.44314e-06
ExecutionTime = 0.04 s  ClockTime = 0 s

Time = 0.4

Courant Number mean: 0.296919 max: 0.920351
smoothSolver:  Solving for Ux, Initial residual = 0.00804125, Final residual = 4.4111e-06, No Iterations 2
smoothSolver:  Solving for Uy, Initial residual = 0.00590479, Final residual = 2.74628e-06, No Iterations 2
DICPCG:  Solving for p, Initial residual = 0.0963519, Final residual = 0.00306467, No Iterations 3
DICPCG:  Solving for p, Initial residual = 0.0113922, Final residual = 0.000517368, No Iterations 27
DICPCG:  Solving for p, Initial residual = 0.00223934, Final residual = 9.25072e-05, No Iterations 47
time step continuity errors : sum local = 4.57555e-07, global = -3.20548e-10, cumulative = -2.44346e-06
DICPCG:  Solving for p, Initial residual = 0.0089498, Final residual = 0.000331253, No Iterations 5
DICPCG:  Solving for p, Initial residual = 0.00122872, Final residual = 5.50206e-05, No Iterations 52
DICPCG:  Solving for p, Initial residual = 0.000382095, Final residual = 6.1513e-07, No Iterations 62
time step continuity errors : sum local = 3.0298e-09, global = -1.31487e-12, cumulative = -2.44346e-06
ExecutionTime = 0.05 s  ClockTime = 0 s

Time = 0.45

Courant Number mean: 0.29695 max: 0.924218
smoothSolver:  Solving for Ux, Initial residual = 0.00672278, Final residual = 4.05156e-06, No Iterations 2
smoothSolver:  Solving for Uy, Initial residual = 0.00502962, Final residual = 2.52505e-06, No Iterations 2
DICPCG:  Solving for p, Initial residual = 0.0876616, Final residual = 0.00280257, No Iterations 3
DICPCG:  Solving for p, Initial residual = 0.0106434, Final residual = 0.000496774, No Iterations 22
DICPCG:  Solving for p, Initial residual = 0.00201689, Final residual = 9.31773e-05, No Iterations 38
time step continuity errors : sum local = 4.21461e-07, global = -6.50176e-09, cumulative = -2.44996e-06
DICPCG:  Solving for p, Initial residual = 0.00843569, Final residual = 0.000390578, No Iterations 4
DICPCG:  Solving for p, Initial residual = 0.00129299, Final residual = 6.19898e-05, No Iterations 50
DICPCG:  Solving for p, Initial residual = 0.000346126, Final residual = 8.18776e-07, No Iterations 60
time step continuity errors : sum local = 3.68331e-09, global = 6.2275e-11, cumulative = -2.4499e-06
ExecutionTime = 0.06 s  ClockTime = 0 s

Time = 0.5

Courant Number mean: 0.296977 max: 0.928095
smoothSolver:  Solving for Ux, Initial residual = 0.00573223, Final residual = 3.55349e-06, No Iterations 2
smoothSolver:  Solving for Uy, Initial residual = 0.00430471, Final residual = 2.28728e-06, No Iterations 2
DICPCG:  Solving for p, Initial residual = 0.0820281, Final residual = 0.00241071, No Iterations 3
DICPCG:  Solving for p, Initial residual = 0.00959636, Final residual = 0.000470701, No Iterations 15
DICPCG:  Solving for p, Initial residual = 0.00162049, Final residual = 7.87589e-05, No Iterations 45
time step continuity errors : sum local = 3.25451e-07, global = 6.46878e-09, cumulative = -2.44343e-06
DICPCG:  Solving for p, Initial residual = 0.00817269, Final residual = 0.000349581, No Iterations 4
DICPCG:  Solving for p, Initial residual = 0.00115555, Final residual = 5.42102e-05, No Iterations 47
DICPCG:  Solving for p, Initial residual = 0.000362692, Final residual = 8.36693e-07, No Iterations 59
time step continuity errors : sum local = 3.43826e-09, global = -1.02026e-10, cumulative = -2.44353e-06
ExecutionTime = 0.06 s  ClockTime = 0 s

Time = 0.55

Courant Number mean: 0.296999 max: 0.931959
smoothSolver:  Solving for Ux, Initial residual = 0.00497119, Final residual = 3.18179e-06, No Iterations 2
smoothSolver:  Solving for Uy, Initial residual = 0.00380232, Final residual = 2.15548e-06, No Iterations 2
DICPCG:  Solving for p, Initial residual = 0.0841145, Final residual = 0.00304527, No Iterations 3
DICPCG:  Solving for p, Initial residual = 0.0102736, Final residual = 0.000489843, No Iterations 38
DICPCG:  Solving for p, Initial residual = 0.00274294, Final residual = 0.00011308, No Iterations 12
time step continuity errors : sum local = 4.21322e-07, global = 1.59239e-08, cumulative = -2.42761e-06
DICPCG:  Solving for p, Initial residual = 0.00854253, Final residual = 0.000416263, No Iterations 4
DICPCG:  Solving for p, Initial residual = 0.00129545, Final residual = 5.75041e-05, No Iterations 44
DICPCG:  Solving for p, Initial residual = 0.00042512, Final residual = 8.22615e-07, No Iterations 40
time step continuity errors : sum local = 3.07989e-09, global = 1.67847e-10, cumulative = -2.42744e-06
ExecutionTime = 0.06 s  ClockTime = 0 s

Time = 0.6

Courant Number mean: 0.297021 max: 0.934114
smoothSolver:  Solving for Ux, Initial residual = 0.00444175, Final residual = 2.99599e-06, No Iterations 2
smoothSolver:  Solving for Uy, Initial residual = 0.00342746, Final residual = 2.01795e-06, No Iterations 2
DICPCG:  Solving for p, Initial residual = 0.0797568, Final residual = 0.00262229, No Iterations 3
DICPCG:  Solving for p, Initial residual = 0.00892849, Final residual = 0.00041568, No Iterations 8
DICPCG:  Solving for p, Initial residual = 0.00162737, Final residual = 7.04484e-05, No Iterations 49
time step continuity errors : sum local = 2.46486e-07, global = 2.42468e-09, cumulative = -2.42502e-06
DICPCG:  Solving for p, Initial residual = 0.00743906, Final residual = 0.000368011, No Iterations 4
DICPCG:  Solving for p, Initial residual = 0.00110046, Final residual = 5.22515e-05, No Iterations 43
DICPCG:  Solving for p, Initial residual = 0.000296082, Final residual = 8.84288e-07, No Iterations 40
time step continuity errors : sum local = 3.08635e-09, global = 3.34243e-10, cumulative = -2.42468e-06
ExecutionTime = 0.07 s  ClockTime = 0 s

Time = 0.65

Courant Number mean: 0.297042 max: 0.936523
smoothSolver:  Solving for Ux, Initial residual = 0.00404507, Final residual = 2.79413e-06, No Iterations 2
smoothSolver:  Solving for Uy, Initial residual = 0.00308029, Final residual = 1.99923e-06, No Iterations 2
DICPCG:  Solving for p, Initial residual = 0.0718203, Final residual = 0.0022196, No Iterations 3
DICPCG:  Solving for p, Initial residual = 0.00747007, Final residual = 0.000360889, No Iterations 12
DICPCG:  Solving for p, Initial residual = 0.001302, Final residual = 5.84478e-05, No Iterations 49
time step continuity errors : sum local = 1.9182e-07, global = 3.23639e-09, cumulative = -2.42144e-06
DICPCG:  Solving for p, Initial residual = 0.00673156, Final residual = 0.000294356, No Iterations 4
DICPCG:  Solving for p, Initial residual = 0.00088515, Final residual = 3.06437e-05, No Iterations 47
DICPCG:  Solving for p, Initial residual = 0.000284054, Final residual = 8.80772e-07, No Iterations 61
time step continuity errors : sum local = 2.8837e-09, global = -4.10078e-11, cumulative = -2.42149e-06
ExecutionTime = 0.07 s  ClockTime = 0 s

Time = 0.7

Courant Number mean: 0.297062 max: 0.939482
smoothSolver:  Solving for Ux, Initial residual = 0.00360718, Final residual = 2.7641e-06, No Iterations 2
smoothSolver:  Solving for Uy, Initial residual = 0.00278176, Final residual = 1.84091e-06, No Iterations 2
DICPCG:  Solving for p, Initial residual = 0.0711091, Final residual = 0.00217695, No Iterations 3
DICPCG:  Solving for p, Initial residual = 0.00705261, Final residual = 0.000316509, No Iterations 20
DICPCG:  Solving for p, Initial residual = 0.00137846, Final residual = 5.19699e-05, No Iterations 52
time step continuity errors : sum local = 1.62049e-07, global = -9.13658e-10, cumulative = -2.4224e-06
DICPCG:  Solving for p, Initial residual = 0.0064925, Final residual = 0.000258012, No Iterations 4
DICPCG:  Solving for p, Initial residual = 0.000899434, Final residual = 3.26999e-05, No Iterations 51
DICPCG:  Solving for p, Initial residual = 0.000230482, Final residual = 9.55648e-07, No Iterations 51
time step continuity errors : sum local = 2.97452e-09, global = -1.47684e-10, cumulative = -2.42255e-06
ExecutionTime = 0.08 s  ClockTime = 0 s

Time = 0.75

Courant Number mean: 0.297081 max: 0.942926
smoothSolver:  Solving for Ux, Initial residual = 0.00329404, Final residual = 2.69819e-06, No Iterations 2
smoothSolver:  Solving for Uy, Initial residual = 0.00252979, Final residual = 1.78286e-06, No Iterations 2
DICPCG:  Solving for p, Initial residual = 0.0616666, Final residual = 0.00206618, No Iterations 3
DICPCG:  Solving for p, Initial residual = 0.00633541, Final residual = 0.0002734, No Iterations 25
DICPCG:  Solving for p, Initial residual = 0.0015525, Final residual = 7.6573e-05, No Iterations 46
time step continuity errors : sum local = 2.27548e-07, global = 1.203e-09, cumulative = -2.42134e-06
DICPCG:  Solving for p, Initial residual = 0.00631656, Final residual = 0.000280942, No Iterations 4
DICPCG:  Solving for p, Initial residual = 0.000833635, Final residual = 3.42217e-05, No Iterations 49
DICPCG:  Solving for p, Initial residual = 0.000226511, Final residual = 9.65557e-07, No Iterations 39
time step continuity errors : sum local = 2.85954e-09, global = -3.75874e-10, cumulative = -2.42172e-06
ExecutionTime = 0.08 s  ClockTime = 0 s

Time = 0.8

Courant Number mean: 0.297101 max: 0.94655
smoothSolver:  Solving for Ux, Initial residual = 0.00296635, Final residual = 2.44222e-06, No Iterations 2
smoothSolver:  Solving for Uy, Initial residual = 0.00232352, Final residual = 1.66481e-06, No Iterations 2
DICPCG:  Solving for p, Initial residual = 0.0644259, Final residual = 0.00208128, No Iterations 3
DICPCG:  Solving for p, Initial residual = 0.00657105, Final residual = 0.000256977, No Iterations 24
DICPCG:  Solving for p, Initial residual = 0.00141015, Final residual = 6.57835e-05, No Iterations 42
time step continuity errors : sum local = 1.85712e-07, global = -7.73688e-09, cumulative = -2.42946e-06
DICPCG:  Solving for p, Initial residual = 0.00628969, Final residual = 0.000270733, No Iterations 4
DICPCG:  Solving for p, Initial residual = 0.000847573, Final residual = 3.84755e-05, No Iterations 13
DICPCG:  Solving for p, Initial residual = 0.000164525, Final residual = 8.80386e-07, No Iterations 53
time step continuity errors : sum local = 2.48061e-09, global = 1.12366e-10, cumulative = -2.42934e-06
ExecutionTime = 0.09 s  ClockTime = 0 s

Time = 0.85

Courant Number mean: 0.297122 max: 0.950101
smoothSolver:  Solving for Ux, Initial residual = 0.00272645, Final residual = 2.16546e-06, No Iterations 2
smoothSolver:  Solving for Uy, Initial residual = 0.00215602, Final residual = 1.61535e-06, No Iterations 2
DICPCG:  Solving for p, Initial residual = 0.0623802, Final residual = 0.00226286, No Iterations 3
DICPCG:  Solving for p, Initial residual = 0.00680177, Final residual = 0.000294214, No Iterations 25
DICPCG:  Solving for p, Initial residual = 0.00143456, Final residual = 7.04328e-05, No Iterations 45
time step continuity errors : sum local = 1.90281e-07, global = -4.70265e-09, cumulative = -2.43405e-06
DICPCG:  Solving for p, Initial residual = 0.00651133, Final residual = 0.000313167, No Iterations 3
DICPCG:  Solving for p, Initial residual = 0.000926583, Final residual = 4.2032e-05, No Iterations 15
DICPCG:  Solving for p, Initial residual = 0.0001766, Final residual = 7.36148e-07, No Iterations 54
time step continuity errors : sum local = 1.98257e-09, global = 3.00822e-11, cumulative = -2.43402e-06
ExecutionTime = 0.09 s  ClockTime = 0 s

Time = 0.9

Courant Number mean: 0.297142 max: 0.95389
smoothSolver:  Solving for Ux, Initial residual = 0.00249021, Final residual = 2.20312e-06, No Iterations 2
smoothSolver:  Solving for Uy, Initial residual = 0.00195197, Final residual = 1.53828e-06, No Iterations 2
DICPCG:  Solving for p, Initial residual = 0.0636564, Final residual = 0.00200545, No Iterations 3
DICPCG:  Solving for p, Initial residual = 0.00667916, Final residual = 0.000321662, No Iterations 20
DICPCG:  Solving for p, Initial residual = 0.00142777, Final residual = 5.69302e-05, No Iterations 47
time step continuity errors : sum local = 1.48316e-07, global = 6.9322e-09, cumulative = -2.42708e-06
DICPCG:  Solving for p, Initial residual = 0.00637918, Final residual = 0.000296138, No Iterations 3
DICPCG:  Solving for p, Initial residual = 0.000976235, Final residual = 4.4568e-05, No Iterations 13
DICPCG:  Solving for p, Initial residual = 0.000177338, Final residual = 6.16814e-07, No Iterations 61
time step continuity errors : sum local = 1.60175e-09, global = -3.21209e-11, cumulative = -2.42712e-06
ExecutionTime = 0.1 s  ClockTime = 0 s

Time = 0.95

Courant Number mean: 0.297162 max: 0.95859
smoothSolver:  Solving for Ux, Initial residual = 0.00229496, Final residual = 1.98216e-06, No Iterations 2
smoothSolver:  Solving for Uy, Initial residual = 0.00181088, Final residual = 1.43816e-06, No Iterations 2
DICPCG:  Solving for p, Initial residual = 0.0558329, Final residual = 0.00233359, No Iterations 3
DICPCG:  Solving for p, Initial residual = 0.00614013, Final residual = 0.000280498, No Iterations 19
DICPCG:  Solving for p, Initial residual = 0.00144803, Final residual = 5.59756e-05, No Iterations 52
time step continuity errors : sum local = 1.41702e-07, global = 4.17046e-09, cumulative = -2.42295e-06
DICPCG:  Solving for p, Initial residual = 0.0056088, Final residual = 0.000244937, No Iterations 4
DICPCG:  Solving for p, Initial residual = 0.000814158, Final residual = 3.63423e-05, No Iterations 15
DICPCG:  Solving for p, Initial residual = 0.00016623, Final residual = 7.58141e-07, No Iterations 59
time step continuity errors : sum local = 1.91615e-09, global = 7.0215e-11, cumulative = -2.42288e-06
ExecutionTime = 0.1 s  ClockTime = 0 s

Time = 1

Courant Number mean: 0.297179 max: 0.96482
smoothSolver:  Solving for Ux, Initial residual = 0.00211704, Final residual = 1.73414e-06, No Iterations 2
smoothSolver:  Solving for Uy, Initial residual = 0.0016977, Final residual = 1.29211e-06, No Iterations 2
DICPCG:  Solving for p, Initial residual = 0.0518029, Final residual = 0.00185104, No Iterations 3
DICPCG:  Solving for p, Initial residual = 0.00553548, Final residual = 0.000239028, No Iterations 18
DICPCG:  Solving for p, Initial residual = 0.0012995, Final residual = 4.34671e-05, No Iterations 39
time step continuity errors : sum local = 1.07508e-07, global = -6.62147e-10, cumulative = -2.42354e-06
DICPCG:  Solving for p, Initial residual = 0.00503782, Final residual = 0.000178402, No Iterations 4
DICPCG:  Solving for p, Initial residual = 0.000631652, Final residual = 2.96242e-05, No Iterations 15
DICPCG:  Solving for p, Initial residual = 0.000128318, Final residual = 7.16489e-07, No Iterations 58
time step continuity errors : sum local = 1.76727e-09, global = 2.30768e-11, cumulative = -2.42352e-06
ExecutionTime = 0.12 s  ClockTime = 0 s

Time = 1.05

Courant Number mean: 0.297199 max: 0.972645
smoothSolver:  Solving for Ux, Initial residual = 0.00197935, Final residual = 1.57115e-06, No Iterations 2
smoothSolver:  Solving for Uy, Initial residual = 0.00161995, Final residual = 1.18019e-06, No Iterations 2
DICPCG:  Solving for p, Initial residual = 0.0495767, Final residual = 0.00195969, No Iterations 3
DICPCG:  Solving for p, Initial residual = 0.00559908, Final residual = 0.00027384, No Iterations 14
DICPCG:  Solving for p, Initial residual = 0.00125363, Final residual = 5.81209e-05, No Iterations 43
time step continuity errors : sum local = 1.39751e-07, global = -9.64579e-09, cumulative = -2.43316e-06
DICPCG:  Solving for p, Initial residual = 0.0050165, Final residual = 0.000221924, No Iterations 4
DICPCG:  Solving for p, Initial residual = 0.000633276, Final residual = 2.69475e-05, No Iterations 55
DICPCG:  Solving for p, Initial residual = 0.000165826, Final residual = 9.79307e-07, No Iterations 31
time step continuity errors : sum local = 2.36848e-09, global = -3.99418e-10, cumulative = -2.43356e-06
ExecutionTime = 0.12 s  ClockTime = 0 s

Time = 1.1

Courant Number mean: 0.297219 max: 0.979206
smoothSolver:  Solving for Ux, Initial residual = 0.00185983, Final residual = 1.44749e-06, No Iterations 2
smoothSolver:  Solving for Uy, Initial residual = 0.00154949, Final residual = 1.13904e-06, No Iterations 2
DICPCG:  Solving for p, Initial residual = 0.0430606, Final residual = 0.00130665, No Iterations 3
DICPCG:  Solving for p, Initial residual = 0.00451748, Final residual = 0.000188298, No Iterations 10
DICPCG:  Solving for p, Initial residual = 0.0007941, Final residual = 3.83307e-05, No Iterations 18
time step continuity errors : sum local = 9.07545e-08, global = -6.3593e-09, cumulative = -2.43992e-06
DICPCG:  Solving for p, Initial residual = 0.00442928, Final residual = 0.000220737, No Iterations 3
DICPCG:  Solving for p, Initial residual = 0.000645887, Final residual = 2.90373e-05, No Iterations 13
DICPCG:  Solving for p, Initial residual = 0.000146488, Final residual = 8.42675e-07, No Iterations 58
time step continuity errors : sum local = 1.99737e-09, global = 7.0182e-12, cumulative = -2.43991e-06
ExecutionTime = 0.12 s  ClockTime = 0 s

Time = 1.15

Courant Number mean: 0.297236 max: 0.984976
smoothSolver:  Solving for Ux, Initial residual = 0.00173123, Final residual = 1.34441e-06, No Iterations 2
smoothSolver:  Solving for Uy, Initial residual = 0.0014489, Final residual = 1.13594e-06, No Iterations 2
DICPCG:  Solving for p, Initial residual = 0.0399677, Final residual = 0.00131146, No Iterations 3
DICPCG:  Solving for p, Initial residual = 0.00383958, Final residual = 0.000190436, No Iterations 13
DICPCG:  Solving for p, Initial residual = 0.000712573, Final residual = 3.00747e-05, No Iterations 21
time step continuity errors : sum local = 7.00406e-08, global = -1.01707e-08, cumulative = -2.45008e-06
DICPCG:  Solving for p, Initial residual = 0.00385508, Final residual = 0.000142948, No Iterations 3
DICPCG:  Solving for p, Initial residual = 0.000503001, Final residual = 2.40795e-05, No Iterations 14
DICPCG:  Solving for p, Initial residual = 9.5525e-05, Final residual = 7.28885e-07, No Iterations 59
time step continuity errors : sum local = 1.69884e-09, global = -2.52456e-11, cumulative = -2.45011e-06
ExecutionTime = 0.13 s  ClockTime = 0 s

Time = 1.2

Courant Number mean: 0.297247 max: 0.990116
smoothSolver:  Solving for Ux, Initial residual = 0.00166211, Final residual = 1.33725e-06, No Iterations 2
smoothSolver:  Solving for Uy, Initial residual = 0.00136955, Final residual = 1.10418e-06, No Iterations 2
DICPCG:  Solving for p, Initial residual = 0.038312, Final residual = 0.00120977, No Iterations 3
DICPCG:  Solving for p, Initial residual = 0.00388062, Final residual = 0.000169586, No Iterations 13
DICPCG:  Solving for p, Initial residual = 0.000711315, Final residual = 3.13642e-05, No Iterations 23
time step continuity errors : sum local = 7.15318e-08, global = 1.21697e-08, cumulative = -2.43794e-06
DICPCG:  Solving for p, Initial residual = 0.00407591, Final residual = 0.000170421, No Iterations 3
DICPCG:  Solving for p, Initial residual = 0.000566367, Final residual = 2.66583e-05, No Iterations 48
DICPCG:  Solving for p, Initial residual = 0.000151877, Final residual = 9.81786e-07, No Iterations 30
time step continuity errors : sum local = 2.23927e-09, global = 1.321e-10, cumulative = -2.43781e-06
ExecutionTime = 0.13 s  ClockTime = 0 s

Time = 1.25

Courant Number mean: 0.297256 max: 0.994708
smoothSolver:  Solving for Ux, Initial residual = 0.00156338, Final residual = 1.33227e-06, No Iterations 2
smoothSolver:  Solving for Uy, Initial residual = 0.00127044, Final residual = 1.04029e-06, No Iterations 2
DICPCG:  Solving for p, Initial residual = 0.037747, Final residual = 0.0014803, No Iterations 3
DICPCG:  Solving for p, Initial residual = 0.0042257, Final residual = 0.000197415, No Iterations 13
DICPCG:  Solving for p, Initial residual = 0.000882248, Final residual = 3.88813e-05, No Iterations 49
time step continuity errors : sum local = 8.6707e-08, global = -1.08676e-09, cumulative = -2.43889e-06
DICPCG:  Solving for p, Initial residual = 0.00357711, Final residual = 0.000149971, No Iterations 3
DICPCG:  Solving for p, Initial residual = 0.000476123, Final residual = 2.06748e-05, No Iterations 15
DICPCG:  Solving for p, Initial residual = 9.9555e-05, Final residual = 7.99002e-07, No Iterations 57
time step continuity errors : sum local = 1.78551e-09, global = 9.51748e-12, cumulative = -2.43888e-06
ExecutionTime = 0.13 s  ClockTime = 0 s

Time = 1.3

Courant Number mean: 0.297264 max: 0.998819
smoothSolver:  Solving for Ux, Initial residual = 0.00150533, Final residual = 1.30813e-06, No Iterations 2
smoothSolver:  Solving for Uy, Initial residual = 0.00122524, Final residual = 1.03951e-06, No Iterations 2
DICPCG:  Solving for p, Initial residual = 0.0355165, Final residual = 0.00125444, No Iterations 3
DICPCG:  Solving for p, Initial residual = 0.00377452, Final residual = 0.000162009, No Iterations 11
DICPCG:  Solving for p, Initial residual = 0.000673669, Final residual = 3.16329e-05, No Iterations 17
time step continuity errors : sum local = 6.98612e-08, global = -2.06157e-09, cumulative = -2.44095e-06
DICPCG:  Solving for p, Initial residual = 0.00359086, Final residual = 0.00017392, No Iterations 3
DICPCG:  Solving for p, Initial residual = 0.000506482, Final residual = 2.53233e-05, No Iterations 6
DICPCG:  Solving for p, Initial residual = 0.000102723, Final residual = 9.26512e-07, No Iterations 58
time step continuity errors : sum local = 2.04636e-09, global = -3.59301e-11, cumulative = -2.44098e-06
ExecutionTime = 0.14 s  ClockTime = 0 s

Time = 1.35

Courant Number mean: 0.297272 max: 1.00235
smoothSolver:  Solving for Ux, Initial residual = 0.0014349, Final residual = 1.24205e-06, No Iterations 2
smoothSolver:  Solving for Uy, Initial residual = 0.00117614, Final residual = 9.77132e-07, No Iterations 2
DICPCG:  Solving for p, Initial residual = 0.0376302, Final residual = 0.00115931, No Iterations 3
DICPCG:  Solving for p, Initial residual = 0.00408739, Final residual = 0.000198215, No Iterations 12
DICPCG:  Solving for p, Initial residual = 0.000866077, Final residual = 3.93863e-05, No Iterations 20
time step continuity errors : sum local = 8.53656e-08, global = -1.06114e-08, cumulative = -2.45159e-06
DICPCG:  Solving for p, Initial residual = 0.00350625, Final residual = 0.000162345, No Iterations 3
DICPCG:  Solving for p, Initial residual = 0.000468841, Final residual = 1.91319e-05, No Iterations 14
DICPCG:  Solving for p, Initial residual = 8.22333e-05, Final residual = 9.42472e-07, No Iterations 57
time step continuity errors : sum local = 2.04369e-09, global = 6.7475e-11, cumulative = -2.45153e-06
ExecutionTime = 0.14 s  ClockTime = 0 s

Time = 1.4

Courant Number mean: 0.29728 max: 1.00544
smoothSolver:  Solving for Ux, Initial residual = 0.0013576, Final residual = 1.23316e-06, No Iterations 2
smoothSolver:  Solving for Uy, Initial residual = 0.00116722, Final residual = 9.4632e-07, No Iterations 2
DICPCG:  Solving for p, Initial residual = 0.0334208, Final residual = 0.00115815, No Iterations 3
DICPCG:  Solving for p, Initial residual = 0.00367398, Final residual = 0.000176911, No Iterations 11
DICPCG:  Solving for p, Initial residual = 0.000804094, Final residual = 3.31284e-05, No Iterations 18
time step continuity errors : sum local = 7.10633e-08, global = 4.36224e-09, cumulative = -2.44716e-06
DICPCG:  Solving for p, Initial residual = 0.00340816, Final residual = 0.00012641, No Iterations 4
DICPCG:  Solving for p, Initial residual = 0.000438337, Final residual = 1.77662e-05, No Iterations 12
DICPCG:  Solving for p, Initial residual = 8.35903e-05, Final residual = 9.96934e-07, No Iterations 57
time step continuity errors : sum local = 2.13957e-09, global = -2.86749e-11, cumulative = -2.44719e-06
ExecutionTime = 0.14 s  ClockTime = 0 s

Time = 1.45

Courant Number mean: 0.297288 max: 1.00811
smoothSolver:  Solving for Ux, Initial residual = 0.00126778, Final residual = 1.05659e-06, No Iterations 2
smoothSolver:  Solving for Uy, Initial residual = 0.00113655, Final residual = 9.23112e-07, No Iterations 2
DICPCG:  Solving for p, Initial residual = 0.033163, Final residual = 0.00107286, No Iterations 3
DICPCG:  Solving for p, Initial residual = 0.00339004, Final residual = 0.000164897, No Iterations 12
DICPCG:  Solving for p, Initial residual = 0.00062291, Final residual = 2.96211e-05, No Iterations 50
time step continuity errors : sum local = 6.30511e-08, global = 3.7793e-09, cumulative = -2.44341e-06
DICPCG:  Solving for p, Initial residual = 0.00332292, Final residual = 0.000152735, No Iterations 3
DICPCG:  Solving for p, Initial residual = 0.000449979, Final residual = 2.03473e-05, No Iterations 12
DICPCG:  Solving for p, Initial residual = 8.63242e-05, Final residual = 9.12113e-07, No Iterations 58
time step continuity errors : sum local = 1.94428e-09, global = 4.08959e-11, cumulative = -2.44337e-06
ExecutionTime = 0.15 s  ClockTime = 0 s

Time = 1.5

Courant Number mean: 0.297299 max: 1.01049
smoothSolver:  Solving for Ux, Initial residual = 0.00121985, Final residual = 1.0717e-06, No Iterations 2
smoothSolver:  Solving for Uy, Initial residual = 0.00109615, Final residual = 8.86189e-07, No Iterations 2
DICPCG:  Solving for p, Initial residual = 0.0342762, Final residual = 0.000999753, No Iterations 3
DICPCG:  Solving for p, Initial residual = 0.00315353, Final residual = 0.000132478, No Iterations 10
DICPCG:  Solving for p, Initial residual = 0.000579504, Final residual = 2.52904e-05, No Iterations 44
time step continuity errors : sum local = 5.32957e-08, global = -3.92648e-09, cumulative = -2.4473e-06
DICPCG:  Solving for p, Initial residual = 0.00336701, Final residual = 0.000133763, No Iterations 3
DICPCG:  Solving for p, Initial residual = 0.000418391, Final residual = 1.97018e-05, No Iterations 16
DICPCG:  Solving for p, Initial residual = 9.7385e-05, Final residual = 9.68409e-07, No Iterations 58
time step continuity errors : sum local = 2.045e-09, global = 3.83209e-11, cumulative = -2.44726e-06
ExecutionTime = 0.15 s  ClockTime = 0 s

Time = 1.55

Courant Number mean: 0.297311 max: 1.01246
smoothSolver:  Solving for Ux, Initial residual = 0.00118162, Final residual = 1.0282e-06, No Iterations 2
smoothSolver:  Solving for Uy, Initial residual = 0.00103568, Final residual = 8.71792e-07, No Iterations 2
DICPCG:  Solving for p, Initial residual = 0.0308397, Final residual = 0.000806473, No Iterations 3
DICPCG:  Solving for p, Initial residual = 0.0025811, Final residual = 0.000117529, No Iterations 11
DICPCG:  Solving for p, Initial residual = 0.000469588, Final residual = 1.73356e-05, No Iterations 52
time step continuity errors : sum local = 3.6272e-08, global = 4.53338e-10, cumulative = -2.44681e-06
DICPCG:  Solving for p, Initial residual = 0.00329965, Final residual = 0.000111043, No Iterations 3
DICPCG:  Solving for p, Initial residual = 0.000408889, Final residual = 2.03102e-05, No Iterations 16
DICPCG:  Solving for p, Initial residual = 7.34892e-05, Final residual = 9.00142e-07, No Iterations 57
time step continuity errors : sum local = 1.88838e-09, global = 2.49319e-11, cumulative = -2.44678e-06
ExecutionTime = 0.15 s  ClockTime = 0 s

Time = 1.6

Courant Number mean: 0.297323 max: 1.01406
smoothSolver:  Solving for Ux, Initial residual = 0.00113308, Final residual = 9.84324e-07, No Iterations 2
smoothSolver:  Solving for Uy, Initial residual = 0.00102024, Final residual = 8.66842e-07, No Iterations 2
DICPCG:  Solving for p, Initial residual = 0.0317978, Final residual = 0.00108574, No Iterations 3
DICPCG:  Solving for p, Initial residual = 0.0030549, Final residual = 0.000123523, No Iterations 12
DICPCG:  Solving for p, Initial residual = 0.000636767, Final residual = 2.84522e-05, No Iterations 47
time step continuity errors : sum local = 5.92913e-08, global = 2.15991e-09, cumulative = -2.44462e-06
DICPCG:  Solving for p, Initial residual = 0.00326432, Final residual = 0.000131835, No Iterations 3
DICPCG:  Solving for p, Initial residual = 0.000385234, Final residual = 1.85724e-05, No Iterations 13
DICPCG:  Solving for p, Initial residual = 7.83944e-05, Final residual = 7.78397e-07, No Iterations 59
time step continuity errors : sum local = 1.62606e-09, global = 6.38574e-12, cumulative = -2.44462e-06
ExecutionTime = 0.16 s  ClockTime = 0 s

Time = 1.65

Courant Number mean: 0.297332 max: 1.01519
smoothSolver:  Solving for Ux, Initial residual = 0.00109211, Final residual = 8.92778e-07, No Iterations 2
smoothSolver:  Solving for Uy, Initial residual = 0.000972057, Final residual = 8.51985e-07, No Iterations 2
DICPCG:  Solving for p, Initial residual = 0.0301061, Final residual = 0.00111737, No Iterations 3
DICPCG:  Solving for p, Initial residual = 0.00311499, Final residual = 0.000141598, No Iterations 10
DICPCG:  Solving for p, Initial residual = 0.000600449, Final residual = 2.2979e-05, No Iterations 47
time step continuity errors : sum local = 4.75917e-08, global = 2.21806e-09, cumulative = -2.4424e-06
DICPCG:  Solving for p, Initial residual = 0.00306975, Final residual = 0.00012921, No Iterations 3
DICPCG:  Solving for p, Initial residual = 0.00043239, Final residual = 1.60391e-05, No Iterations 6
DICPCG:  Solving for p, Initial residual = 6.52022e-05, Final residual = 7.3974e-07, No Iterations 55
time step continuity errors : sum local = 1.53524e-09, global = -2.93413e-11, cumulative = -2.44243e-06
ExecutionTime = 0.16 s  ClockTime = 0 s

Time = 1.7

Courant Number mean: 0.297343 max: 1.01607
smoothSolver:  Solving for Ux, Initial residual = 0.00105676, Final residual = 8.42227e-07, No Iterations 2
smoothSolver:  Solving for Uy, Initial residual = 0.000941238, Final residual = 8.40407e-07, No Iterations 2
DICPCG:  Solving for p, Initial residual = 0.0237174, Final residual = 0.000761389, No Iterations 3
DICPCG:  Solving for p, Initial residual = 0.00226161, Final residual = 0.000108499, No Iterations 15
DICPCG:  Solving for p, Initial residual = 0.000518396, Final residual = 2.02428e-05, No Iterations 18
time step continuity errors : sum local = 4.15097e-08, global = 9.00793e-10, cumulative = -2.44153e-06
DICPCG:  Solving for p, Initial residual = 0.00247234, Final residual = 0.000112976, No Iterations 3
DICPCG:  Solving for p, Initial residual = 0.000320682, Final residual = 1.26968e-05, No Iterations 16
DICPCG:  Solving for p, Initial residual = 7.23021e-05, Final residual = 9.72795e-07, No Iterations 57
time step continuity errors : sum local = 1.9965e-09, global = 9.25399e-11, cumulative = -2.44143e-06
ExecutionTime = 0.17 s  ClockTime = 0 s

Time = 1.75

Courant Number mean: 0.297355 max: 1.01673
smoothSolver:  Solving for Ux, Initial residual = 0.00101401, Final residual = 8.06323e-07, No Iterations 2
smoothSolver:  Solving for Uy, Initial residual = 0.000925599, Final residual = 8.11395e-07, No Iterations 2
DICPCG:  Solving for p, Initial residual = 0.0260507, Final residual = 0.000761336, No Iterations 3
DICPCG:  Solving for p, Initial residual = 0.00223659, Final residual = 0.000106961, No Iterations 15
DICPCG:  Solving for p, Initial residual = 0.000457928, Final residual = 2.24271e-05, No Iterations 19
time step continuity errors : sum local = 4.56196e-08, global = 3.17127e-10, cumulative = -2.44112e-06
DICPCG:  Solving for p, Initial residual = 0.00262421, Final residual = 9.05372e-05, No Iterations 3
DICPCG:  Solving for p, Initial residual = 0.000317624, Final residual = 1.48238e-05, No Iterations 14
DICPCG:  Solving for p, Initial residual = 6.36956e-05, Final residual = 7.03523e-07, No Iterations 43
time step continuity errors : sum local = 1.43189e-09, global = 5.45277e-12, cumulative = -2.44111e-06
ExecutionTime = 0.17 s  ClockTime = 0 s

Time = 1.8

Courant Number mean: 0.297364 max: 1.01723
smoothSolver:  Solving for Ux, Initial residual = 0.000976292, Final residual = 7.73088e-07, No Iterations 2
smoothSolver:  Solving for Uy, Initial residual = 0.000910543, Final residual = 7.97095e-07, No Iterations 2
DICPCG:  Solving for p, Initial residual = 0.0257896, Final residual = 0.000661329, No Iterations 3
DICPCG:  Solving for p, Initial residual = 0.00226084, Final residual = 0.000107153, No Iterations 6
DICPCG:  Solving for p, Initial residual = 0.000403407, Final residual = 1.72773e-05, No Iterations 24
time step continuity errors : sum local = 3.49554e-08, global = 4.52859e-10, cumulative = -2.44066e-06
DICPCG:  Solving for p, Initial residual = 0.00263958, Final residual = 9.20107e-05, No Iterations 3
DICPCG:  Solving for p, Initial residual = 0.0003175, Final residual = 1.31868e-05, No Iterations 10
DICPCG:  Solving for p, Initial residual = 5.63515e-05, Final residual = 6.70739e-07, No Iterations 55
time step continuity errors : sum local = 1.35792e-09, global = 1.6121e-11, cumulative = -2.44064e-06
ExecutionTime = 0.17 s  ClockTime = 0 s

Time = 1.85

Courant Number mean: 0.297375 max: 1.01761
smoothSolver:  Solving for Ux, Initial residual = 0.00097636, Final residual = 7.94611e-07, No Iterations 2
smoothSolver:  Solving for Uy, Initial residual = 0.000924165, Final residual = 7.65711e-07, No Iterations 2
DICPCG:  Solving for p, Initial residual = 0.0261626, Final residual = 0.000841115, No Iterations 3
DICPCG:  Solving for p, Initial residual = 0.00290017, Final residual = 0.000135951, No Iterations 6
DICPCG:  Solving for p, Initial residual = 0.000482564, Final residual = 2.2271e-05, No Iterations 29
time step continuity errors : sum local = 4.49172e-08, global = -7.91074e-09, cumulative = -2.44855e-06
DICPCG:  Solving for p, Initial residual = 0.0028494, Final residual = 0.000123479, No Iterations 3
DICPCG:  Solving for p, Initial residual = 0.000373447, Final residual = 1.80857e-05, No Iterations 14
DICPCG:  Solving for p, Initial residual = 7.19732e-05, Final residual = 7.30444e-07, No Iterations 50
time step continuity errors : sum local = 1.47446e-09, global = -3.77645e-11, cumulative = -2.44859e-06
ExecutionTime = 0.18 s  ClockTime = 0 s

Time = 1.9

Courant Number mean: 0.297385 max: 1.01791
smoothSolver:  Solving for Ux, Initial residual = 0.000967433, Final residual = 7.27931e-07, No Iterations 2
smoothSolver:  Solving for Uy, Initial residual = 0.000911553, Final residual = 7.21933e-07, No Iterations 2
DICPCG:  Solving for p, Initial residual = 0.0250055, Final residual = 0.00105279, No Iterations 3
DICPCG:  Solving for p, Initial residual = 0.0026866, Final residual = 0.000126252, No Iterations 13
DICPCG:  Solving for p, Initial residual = 0.00063845, Final residual = 3.19188e-05, No Iterations 22
time step continuity errors : sum local = 6.42746e-08, global = -3.5841e-09, cumulative = -2.45217e-06
DICPCG:  Solving for p, Initial residual = 0.00251515, Final residual = 9.6994e-05, No Iterations 3
DICPCG:  Solving for p, Initial residual = 0.00031426, Final residual = 1.30807e-05, No Iterations 11
DICPCG:  Solving for p, Initial residual = 6.68435e-05, Final residual = 7.16793e-07, No Iterations 52
time step continuity errors : sum local = 1.44439e-09, global = -1.7539e-11, cumulative = -2.45219e-06
ExecutionTime = 0.18 s  ClockTime = 0 s

Time = 1.95

Courant Number mean: 0.297398 max: 1.01813
smoothSolver:  Solving for Ux, Initial residual = 0.000928011, Final residual = 6.90216e-07, No Iterations 2
smoothSolver:  Solving for Uy, Initial residual = 0.00084845, Final residual = 6.45784e-07, No Iterations 2
DICPCG:  Solving for p, Initial residual = 0.0212702, Final residual = 0.000692561, No Iterations 3
DICPCG:  Solving for p, Initial residual = 0.00210958, Final residual = 9.15511e-05, No Iterations 10
DICPCG:  Solving for p, Initial residual = 0.000392168, Final residual = 1.81538e-05, No Iterations 15
time step continuity errors : sum local = 3.64274e-08, global = -1.5563e-09, cumulative = -2.45375e-06
DICPCG:  Solving for p, Initial residual = 0.00236421, Final residual = 9.8503e-05, No Iterations 3
DICPCG:  Solving for p, Initial residual = 0.000316798, Final residual = 1.44053e-05, No Iterations 14
DICPCG:  Solving for p, Initial residual = 6.3008e-05, Final residual = 9.36823e-07, No Iterations 58
time step continuity errors : sum local = 1.88041e-09, global = 7.2716e-12, cumulative = -2.45374e-06
ExecutionTime = 0.19 s  ClockTime = 0 s

Time = 2

Courant Number mean: 0.297409 max: 1.0183
smoothSolver:  Solving for Ux, Initial residual = 0.000900227, Final residual = 6.56044e-07, No Iterations 2
smoothSolver:  Solving for Uy, Initial residual = 0.000792265, Final residual = 6.00775e-07, No Iterations 2
DICPCG:  Solving for p, Initial residual = 0.0252043, Final residual = 0.000695254, No Iterations 3
DICPCG:  Solving for p, Initial residual = 0.00242013, Final residual = 0.000114537, No Iterations 13
DICPCG:  Solving for p, Initial residual = 0.000592057, Final residual = 2.58588e-05, No Iterations 25
time step continuity errors : sum local = 5.19539e-08, global = -1.00303e-08, cumulative = -2.46377e-06
DICPCG:  Solving for p, Initial residual = 0.00249576, Final residual = 0.000114703, No Iterations 3
DICPCG:  Solving for p, Initial residual = 0.000336887, Final residual = 1.54992e-05, No Iterations 49
DICPCG:  Solving for p, Initial residual = 9.322e-05, Final residual = 8.63214e-07, No Iterations 27
time step continuity errors : sum local = 1.73523e-09, global = 1.47132e-10, cumulative = -2.46362e-06
ExecutionTime = 0.2 s  ClockTime = 0 s

Time = 2.05

Courant Number mean: 0.297421 max: 1.01845
smoothSolver:  Solving for Ux, Initial residual = 0.000858799, Final residual = 6.19831e-07, No Iterations 2
smoothSolver:  Solving for Uy, Initial residual = 0.000784322, Final residual = 5.76687e-07, No Iterations 2
DICPCG:  Solving for p, Initial residual = 0.0240676, Final residual = 0.000673372, No Iterations 3
DICPCG:  Solving for p, Initial residual = 0.00260719, Final residual = 0.000127975, No Iterations 7
DICPCG:  Solving for p, Initial residual = 0.000425993, Final residual = 1.75284e-05, No Iterations 18
time step continuity errors : sum local = 3.52598e-08, global = -4.30286e-09, cumulative = -2.46793e-06
DICPCG:  Solving for p, Initial residual = 0.00261678, Final residual = 0.00011224, No Iterations 3
DICPCG:  Solving for p, Initial residual = 0.000382826, Final residual = 1.50474e-05, No Iterations 6
DICPCG:  Solving for p, Initial residual = 5.24776e-05, Final residual = 8.86221e-07, No Iterations 57
time step continuity errors : sum local = 1.78262e-09, global = -7.27813e-13, cumulative = -2.46793e-06
ExecutionTime = 0.2 s  ClockTime = 0 s

Time = 2.1

Courant Number mean: 0.297432 max: 1.01859
smoothSolver:  Solving for Ux, Initial residual = 0.000810371, Final residual = 5.90743e-07, No Iterations 2
smoothSolver:  Solving for Uy, Initial residual = 0.000776162, Final residual = 5.6935e-07, No Iterations 2
DICPCG:  Solving for p, Initial residual = 0.0224069, Final residual = 0.00080585, No Iterations 3
DICPCG:  Solving for p, Initial residual = 0.00231811, Final residual = 8.40246e-05, No Iterations 7
DICPCG:  Solving for p, Initial residual = 0.000417912, Final residual = 2.05004e-05, No Iterations 10
time step continuity errors : sum local = 4.1088e-08, global = 4.70028e-09, cumulative = -2.46323e-06
DICPCG:  Solving for p, Initial residual = 0.00257624, Final residual = 8.84096e-05, No Iterations 4
DICPCG:  Solving for p, Initial residual = 0.000337238, Final residual = 1.61315e-05, No Iterations 7
DICPCG:  Solving for p, Initial residual = 5.45238e-05, Final residual = 8.80941e-07, No Iterations 52
time step continuity errors : sum local = 1.76648e-09, global = 7.36681e-11, cumulative = -2.46315e-06
ExecutionTime = 0.21 s  ClockTime = 0 s

Time = 2.15

Courant Number mean: 0.297443 max: 1.01866
smoothSolver:  Solving for Ux, Initial residual = 0.000772326, Final residual = 5.98076e-07, No Iterations 2
smoothSolver:  Solving for Uy, Initial residual = 0.000753326, Final residual = 6.01813e-07, No Iterations 2
DICPCG:  Solving for p, Initial residual = 0.0235179, Final residual = 0.0006957, No Iterations 3
DICPCG:  Solving for p, Initial residual = 0.00226947, Final residual = 8.52757e-05, No Iterations 7
DICPCG:  Solving for p, Initial residual = 0.000348007, Final residual = 1.65221e-05, No Iterations 14
time step continuity errors : sum local = 3.30215e-08, global = -4.19638e-09, cumulative = -2.46735e-06
DICPCG:  Solving for p, Initial residual = 0.00239221, Final residual = 7.56686e-05, No Iterations 4
DICPCG:  Solving for p, Initial residual = 0.000308127, Final residual = 1.34462e-05, No Iterations 21
DICPCG:  Solving for p, Initial residual = 6.29495e-05, Final residual = 8.6101e-07, No Iterations 57
time step continuity errors : sum local = 1.72212e-09, global = 1.69984e-11, cumulative = -2.46733e-06
ExecutionTime = 0.21 s  ClockTime = 0 s

Time = 2.2

Courant Number mean: 0.297455 max: 1.0188
smoothSolver:  Solving for Ux, Initial residual = 0.000763384, Final residual = 5.78874e-07, No Iterations 2
smoothSolver:  Solving for Uy, Initial residual = 0.000747119, Final residual = 5.32214e-07, No Iterations 2
DICPCG:  Solving for p, Initial residual = 0.02102, Final residual = 0.00056195, No Iterations 3
DICPCG:  Solving for p, Initial residual = 0.00215002, Final residual = 9.98862e-05, No Iterations 7
DICPCG:  Solving for p, Initial residual = 0.00034166, Final residual = 1.62795e-05, No Iterations 21
time step continuity errors : sum local = 3.25831e-08, global = -1.9691e-09, cumulative = -2.4693e-06
DICPCG:  Solving for p, Initial residual = 0.00231652, Final residual = 0.000113458, No Iterations 3
DICPCG:  Solving for p, Initial residual = 0.000327234, Final residual = 1.60844e-05, No Iterations 15
DICPCG:  Solving for p, Initial residual = 5.77357e-05, Final residual = 7.7231e-07, No Iterations 58
time step continuity errors : sum local = 1.54612e-09, global = 1.5531e-11, cumulative = -2.46929e-06
ExecutionTime = 0.22 s  ClockTime = 0 s

Time = 2.25

Courant Number mean: 0.297465 max: 1.01902
smoothSolver:  Solving for Ux, Initial residual = 0.000733012, Final residual = 5.60888e-07, No Iterations 2
smoothSolver:  Solving for Uy, Initial residual = 0.000717865, Final residual = 5.01593e-07, No Iterations 2
DICPCG:  Solving for p, Initial residual = 0.0195185, Final residual = 0.000777235, No Iterations 3
DICPCG:  Solving for p, Initial residual = 0.00192106, Final residual = 8.46739e-05, No Iterations 7
DICPCG:  Solving for p, Initial residual = 0.00034435, Final residual = 1.59419e-05, No Iterations 15
time step continuity errors : sum local = 3.22322e-08, global = -1.69611e-09, cumulative = -2.47098e-06
DICPCG:  Solving for p, Initial residual = 0.00193792, Final residual = 8.68558e-05, No Iterations 3
DICPCG:  Solving for p, Initial residual = 0.000271187, Final residual = 1.1923e-05, No Iterations 7
DICPCG:  Solving for p, Initial residual = 4.31836e-05, Final residual = 9.59988e-07, No Iterations 47
time step continuity errors : sum local = 1.94025e-09, global = -1.28759e-11, cumulative = -2.471e-06
ExecutionTime = 0.22 s  ClockTime = 0 s

Time = 2.3

Courant Number mean: 0.297476 max: 1.01925
smoothSolver:  Solving for Ux, Initial residual = 0.000721988, Final residual = 5.49482e-07, No Iterations 2
smoothSolver:  Solving for Uy, Initial residual = 0.000723712, Final residual = 5.17719e-07, No Iterations 2
DICPCG:  Solving for p, Initial residual = 0.0169867, Final residual = 0.000588212, No Iterations 3
DICPCG:  Solving for p, Initial residual = 0.00209258, Final residual = 9.69153e-05, No Iterations 8
DICPCG:  Solving for p, Initial residual = 0.000376311, Final residual = 1.65973e-05, No Iterations 53
time step continuity errors : sum local = 3.34922e-08, global = 1.02134e-09, cumulative = -2.46997e-06
DICPCG:  Solving for p, Initial residual = 0.00198613, Final residual = 9.30255e-05, No Iterations 4
DICPCG:  Solving for p, Initial residual = 0.000281665, Final residual = 1.01799e-05, No Iterations 55
DICPCG:  Solving for p, Initial residual = 7.36348e-05, Final residual = 9.92254e-07, No Iterations 11
time step continuity errors : sum local = 2.00256e-09, global = -7.9524e-11, cumulative = -2.47005e-06
ExecutionTime = 0.22 s  ClockTime = 0 s

Time = 2.35

Courant Number mean: 0.297488 max: 1.01948
smoothSolver:  Solving for Ux, Initial residual = 0.000688927, Final residual = 5.22534e-07, No Iterations 2
smoothSolver:  Solving for Uy, Initial residual = 0.000701152, Final residual = 4.92986e-07, No Iterations 2
DICPCG:  Solving for p, Initial residual = 0.0220272, Final residual = 0.000845443, No Iterations 3
DICPCG:  Solving for p, Initial residual = 0.0020709, Final residual = 9.51188e-05, No Iterations 11
DICPCG:  Solving for p, Initial residual = 0.000472185, Final residual = 2.13574e-05, No Iterations 17
time step continuity errors : sum local = 4.26258e-08, global = -1.12376e-08, cumulative = -2.48129e-06
DICPCG:  Solving for p, Initial residual = 0.00182983, Final residual = 8.84155e-05, No Iterations 3
DICPCG:  Solving for p, Initial residual = 0.000237932, Final residual = 9.66996e-06, No Iterations 49
DICPCG:  Solving for p, Initial residual = 6.99856e-05, Final residual = 9.16812e-07, No Iterations 23
time step continuity errors : sum local = 1.83126e-09, global = 2.60017e-10, cumulative = -2.48103e-06
ExecutionTime = 0.23 s  ClockTime = 0 s

Time = 2.4

Courant Number mean: 0.297499 max: 1.01973
smoothSolver:  Solving for Ux, Initial residual = 0.000660647, Final residual = 4.74612e-07, No Iterations 2
smoothSolver:  Solving for Uy, Initial residual = 0.000681776, Final residual = 4.55753e-07, No Iterations 2
DICPCG:  Solving for p, Initial residual = 0.0164729, Final residual = 0.000557694, No Iterations 3
DICPCG:  Solving for p, Initial residual = 0.00191601, Final residual = 8.81036e-05, No Iterations 10
DICPCG:  Solving for p, Initial residual = 0.000364333, Final residual = 1.51259e-05, No Iterations 44
time step continuity errors : sum local = 3.02093e-08, global = -3.42185e-09, cumulative = -2.48445e-06
DICPCG:  Solving for p, Initial residual = 0.0018673, Final residual = 7.91172e-05, No Iterations 3
DICPCG:  Solving for p, Initial residual = 0.00025098, Final residual = 1.20637e-05, No Iterations 22
DICPCG:  Solving for p, Initial residual = 6.00193e-05, Final residual = 8.19999e-07, No Iterations 51
time step continuity errors : sum local = 1.63987e-09, global = 2.76234e-11, cumulative = -2.48443e-06
ExecutionTime = 0.23 s  ClockTime = 0 s

Time = 2.45

Courant Number mean: 0.297511 max: 1.01998
smoothSolver:  Solving for Ux, Initial residual = 0.000652557, Final residual = 4.6631e-07, No Iterations 2
smoothSolver:  Solving for Uy, Initial residual = 0.000677677, Final residual = 4.49385e-07, No Iterations 2
DICPCG:  Solving for p, Initial residual = 0.0190382, Final residual = 0.000489035, No Iterations 3
DICPCG:  Solving for p, Initial residual = 0.00159447, Final residual = 7.32225e-05, No Iterations 12
DICPCG:  Solving for p, Initial residual = 0.000328818, Final residual = 1.26232e-05, No Iterations 44
time step continuity errors : sum local = 2.5399e-08, global = 1.20397e-09, cumulative = -2.48322e-06
DICPCG:  Solving for p, Initial residual = 0.00182097, Final residual = 5.20128e-05, No Iterations 3
DICPCG:  Solving for p, Initial residual = 0.000192629, Final residual = 9.0962e-06, No Iterations 27
DICPCG:  Solving for p, Initial residual = 4.26525e-05, Final residual = 9.45646e-07, No Iterations 56
time step continuity errors : sum local = 1.90385e-09, global = -3.3352e-11, cumulative = -2.48326e-06
ExecutionTime = 0.24 s  ClockTime = 0 s

Time = 2.5

Courant Number mean: 0.297522 max: 1.0202
smoothSolver:  Solving for Ux, Initial residual = 0.000640128, Final residual = 4.72733e-07, No Iterations 2
smoothSolver:  Solving for Uy, Initial residual = 0.000663785, Final residual = 4.79294e-07, No Iterations 2
DICPCG:  Solving for p, Initial residual = 0.019561, Final residual = 0.00071447, No Iterations 3
DICPCG:  Solving for p, Initial residual = 0.00217023, Final residual = 0.000100168, No Iterations 7
DICPCG:  Solving for p, Initial residual = 0.000407009, Final residual = 1.96478e-05, No Iterations 53
time step continuity errors : sum local = 3.93586e-08, global = -5.50181e-11, cumulative = -2.48331e-06
DICPCG:  Solving for p, Initial residual = 0.00200478, Final residual = 9.88345e-05, No Iterations 3
DICPCG:  Solving for p, Initial residual = 0.000275191, Final residual = 1.36879e-05, No Iterations 18
DICPCG:  Solving for p, Initial residual = 6.15703e-05, Final residual = 9.64803e-07, No Iterations 56
time step continuity errors : sum local = 1.93148e-09, global = -5.14415e-11, cumulative = -2.48336e-06
ExecutionTime = 0.24 s  ClockTime = 0 s

Time = 2.55

Courant Number mean: 0.297534 max: 1.02038
smoothSolver:  Solving for Ux, Initial residual = 0.000615742, Final residual = 4.30147e-07, No Iterations 2
smoothSolver:  Solving for Uy, Initial residual = 0.000637613, Final residual = 4.54557e-07, No Iterations 2
DICPCG:  Solving for p, Initial residual = 0.0128746, Final residual = 0.000327881, No Iterations 3
DICPCG:  Solving for p, Initial residual = 0.00125098, Final residual = 5.34852e-05, No Iterations 7
DICPCG:  Solving for p, Initial residual = 0.000201058, Final residual = 9.6333e-06, No Iterations 21
time step continuity errors : sum local = 1.924e-08, global = 8.44852e-10, cumulative = -2.48252e-06
DICPCG:  Solving for p, Initial residual = 0.00130825, Final residual = 5.10547e-05, No Iterations 3
DICPCG:  Solving for p, Initial residual = 0.000168051, Final residual = 7.79701e-06, No Iterations 8
DICPCG:  Solving for p, Initial residual = 2.84029e-05, Final residual = 9.5569e-07, No Iterations 55
time step continuity errors : sum local = 1.90902e-09, global = -5.01201e-11, cumulative = -2.48257e-06
ExecutionTime = 0.24 s  ClockTime = 0 s

Time = 2.6

Courant Number mean: 0.297545 max: 1.02051
smoothSolver:  Solving for Ux, Initial residual = 0.000603894, Final residual = 4.03585e-07, No Iterations 2
smoothSolver:  Solving for Uy, Initial residual = 0.00061899, Final residual = 4.27849e-07, No Iterations 2
DICPCG:  Solving for p, Initial residual = 0.0123277, Final residual = 0.00049231, No Iterations 3
DICPCG:  Solving for p, Initial residual = 0.00138289, Final residual = 6.74108e-05, No Iterations 12
DICPCG:  Solving for p, Initial residual = 0.000287884, Final residual = 1.32778e-05, No Iterations 16
time step continuity errors : sum local = 2.64901e-08, global = -6.61317e-09, cumulative = -2.48918e-06
DICPCG:  Solving for p, Initial residual = 0.00124315, Final residual = 4.73264e-05, No Iterations 4
DICPCG:  Solving for p, Initial residual = 0.000168264, Final residual = 8.27827e-06, No Iterations 52
DICPCG:  Solving for p, Initial residual = 4.9617e-05, Final residual = 8.39254e-07, No Iterations 18
time step continuity errors : sum local = 1.67552e-09, global = 1.06711e-10, cumulative = -2.48907e-06
ExecutionTime = 0.25 s  ClockTime = 0 s

Time = 2.65

Courant Number mean: 0.297556 max: 1.02059
smoothSolver:  Solving for Ux, Initial residual = 0.000594377, Final residual = 9.87044e-06, No Iterations 1
smoothSolver:  Solving for Uy, Initial residual = 0.000615414, Final residual = 4.21595e-07, No Iterations 2
DICPCG:  Solving for p, Initial residual = 0.0159358, Final residual = 0.000509408, No Iterations 3
DICPCG:  Solving for p, Initial residual = 0.00169444, Final residual = 7.63876e-05, No Iterations 8
DICPCG:  Solving for p, Initial residual = 0.000290496, Final residual = 1.22517e-05, No Iterations 20
time step continuity errors : sum local = 2.44769e-08, global = 1.99267e-09, cumulative = -2.48708e-06
DICPCG:  Solving for p, Initial residual = 0.0015544, Final residual = 5.81147e-05, No Iterations 4
DICPCG:  Solving for p, Initial residual = 0.000207789, Final residual = 9.98058e-06, No Iterations 27
DICPCG:  Solving for p, Initial residual = 5.20826e-05, Final residual = 9.75906e-07, No Iterations 54
time step continuity errors : sum local = 1.94978e-09, global = -6.05985e-11, cumulative = -2.48714e-06
ExecutionTime = 0.25 s  ClockTime = 0 s

Time = 2.7

Courant Number mean: 0.297569 max: 1.02064
smoothSolver:  Solving for Ux, Initial residual = 0.000572798, Final residual = 9.22349e-06, No Iterations 1
smoothSolver:  Solving for Uy, Initial residual = 0.00060219, Final residual = 4.10124e-07, No Iterations 2
DICPCG:  Solving for p, Initial residual = 0.0132835, Final residual = 0.000565346, No Iterations 3
DICPCG:  Solving for p, Initial residual = 0.00138195, Final residual = 6.72384e-05, No Iterations 13
DICPCG:  Solving for p, Initial residual = 0.000277513, Final residual = 1.11077e-05, No Iterations 38
time step continuity errors : sum local = 2.21911e-08, global = -1.6514e-09, cumulative = -2.48879e-06
DICPCG:  Solving for p, Initial residual = 0.00131317, Final residual = 5.63673e-05, No Iterations 3
DICPCG:  Solving for p, Initial residual = 0.000171071, Final residual = 7.46015e-06, No Iterations 18
DICPCG:  Solving for p, Initial residual = 3.32697e-05, Final residual = 9.12276e-07, No Iterations 52
time step continuity errors : sum local = 1.82086e-09, global = 3.79208e-11, cumulative = -2.48875e-06
ExecutionTime = 0.26 s  ClockTime = 0 s

Time = 2.75

Courant Number mean: 0.297582 max: 1.02061
smoothSolver:  Solving for Ux, Initial residual = 0.000562995, Final residual = 9.11265e-06, No Iterations 1
smoothSolver:  Solving for Uy, Initial residual = 0.000607252, Final residual = 4.28038e-07, No Iterations 2
DICPCG:  Solving for p, Initial residual = 0.0125561, Final residual = 0.000452209, No Iterations 3
DICPCG:  Solving for p, Initial residual = 0.0013754, Final residual = 5.48432e-05, No Iterations 17
DICPCG:  Solving for p, Initial residual = 0.000273482, Final residual = 1.13403e-05, No Iterations 19
time step continuity errors : sum local = 2.25364e-08, global = 4.12782e-09, cumulative = -2.48463e-06
DICPCG:  Solving for p, Initial residual = 0.00136536, Final residual = 6.38556e-05, No Iterations 3
DICPCG:  Solving for p, Initial residual = 0.000184977, Final residual = 8.06497e-06, No Iterations 14
DICPCG:  Solving for p, Initial residual = 3.64033e-05, Final residual = 9.09192e-07, No Iterations 56
time step continuity errors : sum local = 1.80705e-09, global = 6.35113e-11, cumulative = -2.48456e-06
ExecutionTime = 0.26 s  ClockTime = 0 s

Time = 2.8

Courant Number mean: 0.297594 max: 1.02049
smoothSolver:  Solving for Ux, Initial residual = 0.000546755, Final residual = 9.05161e-06, No Iterations 1
smoothSolver:  Solving for Uy, Initial residual = 0.000590828, Final residual = 4.11917e-07, No Iterations 2
DICPCG:  Solving for p, Initial residual = 0.0125069, Final residual = 0.000452526, No Iterations 3
DICPCG:  Solving for p, Initial residual = 0.00122263, Final residual = 4.91449e-05, No Iterations 11
DICPCG:  Solving for p, Initial residual = 0.000249528, Final residual = 1.18327e-05, No Iterations 40
time step continuity errors : sum local = 2.34906e-08, global = -8.19233e-10, cumulative = -2.48538e-06
DICPCG:  Solving for p, Initial residual = 0.00119802, Final residual = 5.85658e-05, No Iterations 3
DICPCG:  Solving for p, Initial residual = 0.000153652, Final residual = 7.46368e-06, No Iterations 13
DICPCG:  Solving for p, Initial residual = 2.75474e-05, Final residual = 7.47903e-07, No Iterations 50
time step continuity errors : sum local = 1.48627e-09, global = -4.73573e-12, cumulative = -2.48539e-06
ExecutionTime = 0.27 s  ClockTime = 0 s

Time = 2.85

Courant Number mean: 0.297605 max: 1.0203
smoothSolver:  Solving for Ux, Initial residual = 0.00054142, Final residual = 8.78848e-06, No Iterations 1
smoothSolver:  Solving for Uy, Initial residual = 0.000591103, Final residual = 3.71791e-07, No Iterations 2
DICPCG:  Solving for p, Initial residual = 0.0152911, Final residual = 0.000388515, No Iterations 3
DICPCG:  Solving for p, Initial residual = 0.00135159, Final residual = 6.0233e-05, No Iterations 15
DICPCG:  Solving for p, Initial residual = 0.000267566, Final residual = 1.21036e-05, No Iterations 49
time step continuity errors : sum local = 2.41824e-08, global = -1.19973e-10, cumulative = -2.48551e-06
DICPCG:  Solving for p, Initial residual = 0.00151442, Final residual = 6.059e-05, No Iterations 4
DICPCG:  Solving for p, Initial residual = 0.000180153, Final residual = 8.646e-06, No Iterations 25
DICPCG:  Solving for p, Initial residual = 4.65442e-05, Final residual = 9.79709e-07, No Iterations 56
time step continuity errors : sum local = 1.95893e-09, global = -4.97823e-11, cumulative = -2.48556e-06
ExecutionTime = 0.27 s  ClockTime = 0 s

Time = 2.9

Courant Number mean: 0.297616 max: 1.02002
smoothSolver:  Solving for Ux, Initial residual = 0.000520736, Final residual = 8.77848e-06, No Iterations 1
smoothSolver:  Solving for Uy, Initial residual = 0.000579223, Final residual = 4.01504e-07, No Iterations 2
DICPCG:  Solving for p, Initial residual = 0.0111829, Final residual = 0.000402439, No Iterations 3
DICPCG:  Solving for p, Initial residual = 0.0010413, Final residual = 4.51885e-05, No Iterations 9
DICPCG:  Solving for p, Initial residual = 0.000198232, Final residual = 9.28018e-06, No Iterations 51
time step continuity errors : sum local = 1.85568e-08, global = 6.79512e-12, cumulative = -2.48555e-06
DICPCG:  Solving for p, Initial residual = 0.00119378, Final residual = 5.22298e-05, No Iterations 3
DICPCG:  Solving for p, Initial residual = 0.000145777, Final residual = 6.70772e-06, No Iterations 7
DICPCG:  Solving for p, Initial residual = 2.41088e-05, Final residual = 9.83254e-07, No Iterations 46
time step continuity errors : sum local = 1.96494e-09, global = -2.50118e-10, cumulative = -2.4858e-06
ExecutionTime = 0.27 s  ClockTime = 0 s

Time = 2.95

Courant Number mean: 0.297627 max: 1.0197
smoothSolver:  Solving for Ux, Initial residual = 0.000509884, Final residual = 8.74263e-06, No Iterations 1
smoothSolver:  Solving for Uy, Initial residual = 0.000570088, Final residual = 3.66308e-07, No Iterations 2
DICPCG:  Solving for p, Initial residual = 0.0125116, Final residual = 0.000382299, No Iterations 3
DICPCG:  Solving for p, Initial residual = 0.0012783, Final residual = 6.07458e-05, No Iterations 12
DICPCG:  Solving for p, Initial residual = 0.000317057, Final residual = 1.4311e-05, No Iterations 15
time step continuity errors : sum local = 2.8466e-08, global = -6.30031e-09, cumulative = -2.4921e-06
DICPCG:  Solving for p, Initial residual = 0.00117754, Final residual = 5.88047e-05, No Iterations 3
DICPCG:  Solving for p, Initial residual = 0.000152922, Final residual = 7.04232e-06, No Iterations 40
DICPCG:  Solving for p, Initial residual = 5.19352e-05, Final residual = 8.64147e-07, No Iterations 16
time step continuity errors : sum local = 1.7204e-09, global = 1.07734e-10, cumulative = -2.49199e-06
ExecutionTime = 0.28 s  ClockTime = 0 s

Time = 3

Courant Number mean: 0.297636 max: 1.01932
smoothSolver:  Solving for Ux, Initial residual = 0.000494682, Final residual = 8.52118e-06, No Iterations 1
smoothSolver:  Solving for Uy, Initial residual = 0.000550556, Final residual = 9.72501e-06, No Iterations 1
DICPCG:  Solving for p, Initial residual = 0.011032, Final residual = 0.000417345, No Iterations 3
DICPCG:  Solving for p, Initial residual = 0.00105865, Final residual = 5.08918e-05, No Iterations 16
DICPCG:  Solving for p, Initial residual = 0.000220047, Final residual = 9.45705e-06, No Iterations 37
time step continuity errors : sum local = 1.87964e-08, global = -8.0538e-10, cumulative = -2.4928e-06
DICPCG:  Solving for p, Initial residual = 0.00115712, Final residual = 4.30338e-05, No Iterations 3
DICPCG:  Solving for p, Initial residual = 0.000126162, Final residual = 6.29913e-06, No Iterations 13
DICPCG:  Solving for p, Initial residual = 2.64183e-05, Final residual = 9.75924e-07, No Iterations 48
time step continuity errors : sum local = 1.94106e-09, global = 7.52071e-11, cumulative = -2.49272e-06
ExecutionTime = 0.28 s  ClockTime = 0 s

Time = 3.05

Courant Number mean: 0.297644 max: 1.01891
smoothSolver:  Solving for Ux, Initial residual = 0.000495225, Final residual = 8.81582e-06, No Iterations 1
smoothSolver:  Solving for Uy, Initial residual = 0.000550404, Final residual = 9.68305e-06, No Iterations 1
DICPCG:  Solving for p, Initial residual = 0.0148199, Final residual = 0.000532967, No Iterations 4
DICPCG:  Solving for p, Initial residual = 0.00174437, Final residual = 8.59479e-05, No Iterations 16
DICPCG:  Solving for p, Initial residual = 0.000379189, Final residual = 1.43091e-05, No Iterations 42
time step continuity errors : sum local = 2.84143e-08, global = -6.63214e-10, cumulative = -2.49339e-06
DICPCG:  Solving for p, Initial residual = 0.00141162, Final residual = 6.6943e-05, No Iterations 3
DICPCG:  Solving for p, Initial residual = 0.000170506, Final residual = 8.29429e-06, No Iterations 14
DICPCG:  Solving for p, Initial residual = 3.59372e-05, Final residual = 9.85544e-07, No Iterations 48
time step continuity errors : sum local = 1.95931e-09, global = -2.20049e-11, cumulative = -2.49341e-06
ExecutionTime = 0.29 s  ClockTime = 0 s

Time = 3.1

Courant Number mean: 0.297652 max: 1.01847
smoothSolver:  Solving for Ux, Initial residual = 0.000488142, Final residual = 8.82317e-06, No Iterations 1
smoothSolver:  Solving for Uy, Initial residual = 0.000542177, Final residual = 9.42529e-06, No Iterations 1
DICPCG:  Solving for p, Initial residual = 0.0103617, Final residual = 0.000409812, No Iterations 3
DICPCG:  Solving for p, Initial residual = 0.00101655, Final residual = 5.01559e-05, No Iterations 6
DICPCG:  Solving for p, Initial residual = 0.000167663, Final residual = 8.34856e-06, No Iterations 16
time step continuity errors : sum local = 1.65827e-08, global = -2.66896e-09, cumulative = -2.49608e-06
DICPCG:  Solving for p, Initial residual = 0.00106954, Final residual = 4.64165e-05, No Iterations 3
DICPCG:  Solving for p, Initial residual = 0.000138731, Final residual = 6.2842e-06, No Iterations 12
DICPCG:  Solving for p, Initial residual = 2.63385e-05, Final residual = 9.28101e-07, No Iterations 47
time step continuity errors : sum local = 1.8441e-09, global = 1.08712e-10, cumulative = -2.49597e-06
ExecutionTime = 0.29 s  ClockTime = 0 s

Time = 3.15

Courant Number mean: 0.297661 max: 1.01802
smoothSolver:  Solving for Ux, Initial residual = 0.000482476, Final residual = 8.61214e-06, No Iterations 1
smoothSolver:  Solving for Uy, Initial residual = 0.000535111, Final residual = 9.28169e-06, No Iterations 1
DICPCG:  Solving for p, Initial residual = 0.0133381, Final residual = 0.000581807, No Iterations 3
DICPCG:  Solving for p, Initial residual = 0.00166661, Final residual = 7.48838e-05, No Iterations 20
DICPCG:  Solving for p, Initial residual = 0.000317442, Final residual = 1.47811e-05, No Iterations 46
time step continuity errors : sum local = 2.92969e-08, global = -1.26341e-09, cumulative = -2.49723e-06
DICPCG:  Solving for p, Initial residual = 0.00148697, Final residual = 5.0576e-05, No Iterations 4
DICPCG:  Solving for p, Initial residual = 0.000193026, Final residual = 8.65747e-06, No Iterations 14
DICPCG:  Solving for p, Initial residual = 3.37576e-05, Final residual = 9.77951e-07, No Iterations 25
time step continuity errors : sum local = 1.94029e-09, global = 5.11126e-10, cumulative = -2.49672e-06
ExecutionTime = 0.3 s  ClockTime = 0 s

Time = 3.2

Courant Number mean: 0.297669 max: 1.01752
smoothSolver:  Solving for Ux, Initial residual = 0.000471555, Final residual = 8.35489e-06, No Iterations 1
smoothSolver:  Solving for Uy, Initial residual = 0.00052096, Final residual = 9.2569e-06, No Iterations 1
DICPCG:  Solving for p, Initial residual = 0.0140119, Final residual = 0.000698368, No Iterations 3
DICPCG:  Solving for p, Initial residual = 0.00168395, Final residual = 7.94877e-05, No Iterations 7
DICPCG:  Solving for p, Initial residual = 0.000338236, Final residual = 1.5848e-05, No Iterations 24
time step continuity errors : sum local = 3.12721e-08, global = 5.75306e-09, cumulative = -2.49097e-06
DICPCG:  Solving for p, Initial residual = 0.00146654, Final residual = 6.47688e-05, No Iterations 3
DICPCG:  Solving for p, Initial residual = 0.000199492, Final residual = 9.06995e-06, No Iterations 38
DICPCG:  Solving for p, Initial residual = 5.7488e-05, Final residual = 9.69683e-07, No Iterations 27
time step continuity errors : sum local = 1.91334e-09, global = -6.32099e-11, cumulative = -2.49103e-06
ExecutionTime = 0.3 s  ClockTime = 0 s

Time = 3.25

Courant Number mean: 0.297676 max: 1.01704
smoothSolver:  Solving for Ux, Initial residual = 0.000459613, Final residual = 7.98559e-06, No Iterations 1
smoothSolver:  Solving for Uy, Initial residual = 0.000521841, Final residual = 9.22306e-06, No Iterations 1
DICPCG:  Solving for p, Initial residual = 0.0110952, Final residual = 0.000478388, No Iterations 3
DICPCG:  Solving for p, Initial residual = 0.00129575, Final residual = 6.12875e-05, No Iterations 8
DICPCG:  Solving for p, Initial residual = 0.00026996, Final residual = 1.21991e-05, No Iterations 52
time step continuity errors : sum local = 2.40525e-08, global = -7.06192e-10, cumulative = -2.49174e-06
DICPCG:  Solving for p, Initial residual = 0.00121151, Final residual = 4.83716e-05, No Iterations 4
DICPCG:  Solving for p, Initial residual = 0.000170002, Final residual = 7.50815e-06, No Iterations 6
DICPCG:  Solving for p, Initial residual = 2.90786e-05, Final residual = 9.42704e-07, No Iterations 54
time step continuity errors : sum local = 1.86062e-09, global = 2.37923e-13, cumulative = -2.49174e-06
ExecutionTime = 0.3 s  ClockTime = 0 s

Time = 3.3

Courant Number mean: 0.297685 max: 1.01658
smoothSolver:  Solving for Ux, Initial residual = 0.000457547, Final residual = 7.94104e-06, No Iterations 1
smoothSolver:  Solving for Uy, Initial residual = 0.000513725, Final residual = 9.0683e-06, No Iterations 1
DICPCG:  Solving for p, Initial residual = 0.00980674, Final residual = 0.0003381, No Iterations 3
DICPCG:  Solving for p, Initial residual = 0.000928075, Final residual = 4.57882e-05, No Iterations 17
DICPCG:  Solving for p, Initial residual = 0.000197237, Final residual = 8.84195e-06, No Iterations 20
time step continuity errors : sum local = 1.74324e-08, global = 4.5793e-10, cumulative = -2.49128e-06
DICPCG:  Solving for p, Initial residual = 0.00110656, Final residual = 3.94978e-05, No Iterations 4
DICPCG:  Solving for p, Initial residual = 0.000146703, Final residual = 7.24091e-06, No Iterations 9
DICPCG:  Solving for p, Initial residual = 2.71222e-05, Final residual = 9.63409e-07, No Iterations 44
time step continuity errors : sum local = 1.90006e-09, global = 1.02343e-10, cumulative = -2.49118e-06
ExecutionTime = 0.31 s  ClockTime = 0 s

Time = 3.35

Courant Number mean: 0.297693 max: 1.01612
smoothSolver:  Solving for Ux, Initial residual = 0.000455118, Final residual = 7.81285e-06, No Iterations 1
smoothSolver:  Solving for Uy, Initial residual = 0.000513713, Final residual = 8.87716e-06, No Iterations 1
DICPCG:  Solving for p, Initial residual = 0.0109216, Final residual = 0.000520089, No Iterations 3
DICPCG:  Solving for p, Initial residual = 0.00113943, Final residual = 4.38915e-05, No Iterations 6
DICPCG:  Solving for p, Initial residual = 0.000182428, Final residual = 8.19302e-06, No Iterations 18
time step continuity errors : sum local = 1.61723e-08, global = 3.00923e-09, cumulative = -2.48817e-06
DICPCG:  Solving for p, Initial residual = 0.00112429, Final residual = 4.99068e-05, No Iterations 4
DICPCG:  Solving for p, Initial residual = 0.000161023, Final residual = 7.23322e-06, No Iterations 6
DICPCG:  Solving for p, Initial residual = 2.33301e-05, Final residual = 7.16553e-07, No Iterations 55
time step continuity errors : sum local = 1.41474e-09, global = 4.60053e-13, cumulative = -2.48817e-06
ExecutionTime = 0.31 s  ClockTime = 0 s

Time = 3.4

Courant Number mean: 0.2977 max: 1.01572
smoothSolver:  Solving for Ux, Initial residual = 0.000451538, Final residual = 7.43219e-06, No Iterations 1
smoothSolver:  Solving for Uy, Initial residual = 0.000504109, Final residual = 8.52343e-06, No Iterations 1
DICPCG:  Solving for p, Initial residual = 0.0102454, Final residual = 0.000411372, No Iterations 3
DICPCG:  Solving for p, Initial residual = 0.000931566, Final residual = 4.40983e-05, No Iterations 6
DICPCG:  Solving for p, Initial residual = 0.000172187, Final residual = 8.30304e-06, No Iterations 18
time step continuity errors : sum local = 1.63973e-08, global = -3.14212e-09, cumulative = -2.49131e-06
DICPCG:  Solving for p, Initial residual = 0.00099893, Final residual = 4.01248e-05, No Iterations 4
DICPCG:  Solving for p, Initial residual = 0.00013682, Final residual = 6.37487e-06, No Iterations 16
DICPCG:  Solving for p, Initial residual = 2.47119e-05, Final residual = 9.41883e-07, No Iterations 47
time step continuity errors : sum local = 1.86081e-09, global = 2.38724e-11, cumulative = -2.49129e-06
ExecutionTime = 0.32 s  ClockTime = 0 s

Time = 3.45

Courant Number mean: 0.297707 max: 1.01536
smoothSolver:  Solving for Ux, Initial residual = 0.000439964, Final residual = 7.13317e-06, No Iterations 1
smoothSolver:  Solving for Uy, Initial residual = 0.000489455, Final residual = 8.32303e-06, No Iterations 1
DICPCG:  Solving for p, Initial residual = 0.00881509, Final residual = 0.000402884, No Iterations 5
DICPCG:  Solving for p, Initial residual = 0.00127576, Final residual = 5.34933e-05, No Iterations 17
DICPCG:  Solving for p, Initial residual = 0.000305716, Final residual = 1.34636e-05, No Iterations 38
time step continuity errors : sum local = 2.65406e-08, global = 2.42926e-10, cumulative = -2.49104e-06
DICPCG:  Solving for p, Initial residual = 0.00100871, Final residual = 4.5041e-05, No Iterations 5
DICPCG:  Solving for p, Initial residual = 0.000153966, Final residual = 6.71871e-06, No Iterations 17
DICPCG:  Solving for p, Initial residual = 3.08156e-05, Final residual = 7.79282e-07, No Iterations 54
time step continuity errors : sum local = 1.538e-09, global = -2.48116e-11, cumulative = -2.49107e-06
ExecutionTime = 0.32 s  ClockTime = 0 s

Time = 3.5

Courant Number mean: 0.297714 max: 1.01504
smoothSolver:  Solving for Ux, Initial residual = 0.000437936, Final residual = 7.11209e-06, No Iterations 1
smoothSolver:  Solving for Uy, Initial residual = 0.000477165, Final residual = 8.0461e-06, No Iterations 1
DICPCG:  Solving for p, Initial residual = 0.011811, Final residual = 0.000485561, No Iterations 4
DICPCG:  Solving for p, Initial residual = 0.00159897, Final residual = 7.32394e-05, No Iterations 18
DICPCG:  Solving for p, Initial residual = 0.000439241, Final residual = 1.86184e-05, No Iterations 47
time step continuity errors : sum local = 3.66134e-08, global = 9.53747e-10, cumulative = -2.49011e-06
DICPCG:  Solving for p, Initial residual = 0.00132958, Final residual = 6.63485e-05, No Iterations 4
DICPCG:  Solving for p, Initial residual = 0.000209906, Final residual = 1.01589e-05, No Iterations 17
DICPCG:  Solving for p, Initial residual = 4.57841e-05, Final residual = 8.16622e-07, No Iterations 49
[...]
DICPCG:  Solving for p, Initial residual = 9.06312e-05, Final residual = 4.52203e-06, No Iterations 47
time step continuity errors : sum local = 8.94251e-09, global = -5.11022e-10, cumulative = -2.50704e-06
DICPCG:  Solving for p, Initial residual = 0.000443081, Final residual = 1.63095e-05, No Iterations 4
DICPCG:  Solving for p, Initial residual = 5.49642e-05, Final residual = 2.73299e-06, No Iterations 20
DICPCG:  Solving for p, Initial residual = 1.27415e-05, Final residual = 7.46481e-07, No Iterations 40
time step continuity errors : sum local = 1.47652e-09, global = 3.70666e-11, cumulative = -2.507e-06
ExecutionTime = 0.78 s  ClockTime = 1 s

Time = 9.2

Courant Number mean: 0.297406 max: 0.995366
smoothSolver:  Solving for Ux, Initial residual = 0.000167404, Final residual = 2.8728e-06, No Iterations 1
smoothSolver:  Solving for Uy, Initial residual = 0.000196018, Final residual = 3.13542e-06, No Iterations 1
DICPCG:  Solving for p, Initial residual = 0.00339238, Final residual = 0.00014061, No Iterations 3
DICPCG:  Solving for p, Initial residual = 0.000350923, Final residual = 1.63663e-05, No Iterations 14
DICPCG:  Solving for p, Initial residual = 8.7826e-05, Final residual = 4.389e-06, No Iterations 20
time step continuity errors : sum local = 8.6795e-09, global = -4.86543e-10, cumulative = -2.50749e-06
DICPCG:  Solving for p, Initial residual = 0.000472905, Final residual = 2.27876e-05, No Iterations 3
DICPCG:  Solving for p, Initial residual = 6.48905e-05, Final residual = 3.07043e-06, No Iterations 20
DICPCG:  Solving for p, Initial residual = 1.59572e-05, Final residual = 8.87577e-07, No Iterations 38
time step continuity errors : sum local = 1.75545e-09, global = 3.83943e-11, cumulative = -2.50745e-06
ExecutionTime = 0.78 s  ClockTime = 1 s

Time = 9.25

Courant Number mean: 0.297402 max: 0.995111
smoothSolver:  Solving for Ux, Initial residual = 0.000167261, Final residual = 2.99622e-06, No Iterations 1
smoothSolver:  Solving for Uy, Initial residual = 0.000194992, Final residual = 3.06238e-06, No Iterations 1
DICPCG:  Solving for p, Initial residual = 0.00433467, Final residual = 0.000169898, No Iterations 4
DICPCG:  Solving for p, Initial residual = 0.00050782, Final residual = 2.43531e-05, No Iterations 15
DICPCG:  Solving for p, Initial residual = 0.000112146, Final residual = 5.26594e-06, No Iterations 41
time step continuity errors : sum local = 1.04133e-08, global = 4.66776e-10, cumulative = -2.50698e-06
DICPCG:  Solving for p, Initial residual = 0.000705854, Final residual = 3.41991e-05, No Iterations 5
DICPCG:  Solving for p, Initial residual = 0.000115147, Final residual = 5.6602e-06, No Iterations 8
DICPCG:  Solving for p, Initial residual = 2.14193e-05, Final residual = 9.15659e-07, No Iterations 54
time step continuity errors : sum local = 1.81138e-09, global = -3.01488e-12, cumulative = -2.50699e-06
ExecutionTime = 0.79 s  ClockTime = 1 s

Time = 9.3

Courant Number mean: 0.297397 max: 0.994795
smoothSolver:  Solving for Ux, Initial residual = 0.000168778, Final residual = 3.20453e-06, No Iterations 1
smoothSolver:  Solving for Uy, Initial residual = 0.000196632, Final residual = 3.20393e-06, No Iterations 1
DICPCG:  Solving for p, Initial residual = 0.00499621, Final residual = 0.000187306, No Iterations 4
DICPCG:  Solving for p, Initial residual = 0.000601719, Final residual = 2.7041e-05, No Iterations 18
DICPCG:  Solving for p, Initial residual = 0.000146663, Final residual = 6.52037e-06, No Iterations 21
time step continuity errors : sum local = 1.28985e-08, global = 2.14585e-09, cumulative = -2.50484e-06
DICPCG:  Solving for p, Initial residual = 0.000747013, Final residual = 2.88839e-05, No Iterations 5
DICPCG:  Solving for p, Initial residual = 0.00011183, Final residual = 5.56353e-06, No Iterations 13
DICPCG:  Solving for p, Initial residual = 2.45937e-05, Final residual = 9.45547e-07, No Iterations 54
time step continuity errors : sum local = 1.87034e-09, global = -5.13736e-11, cumulative = -2.50489e-06
ExecutionTime = 0.79 s  ClockTime = 1 s

Time = 9.35

Courant Number mean: 0.297392 max: 0.994518
smoothSolver:  Solving for Ux, Initial residual = 0.000163337, Final residual = 3.13227e-06, No Iterations 1
smoothSolver:  Solving for Uy, Initial residual = 0.000195322, Final residual = 3.03247e-06, No Iterations 1
DICPCG:  Solving for p, Initial residual = 0.00371358, Final residual = 0.000125225, No Iterations 3
DICPCG:  Solving for p, Initial residual = 0.000357295, Final residual = 1.72437e-05, No Iterations 14
DICPCG:  Solving for p, Initial residual = 8.85976e-05, Final residual = 4.31119e-06, No Iterations 20
time step continuity errors : sum local = 8.52695e-09, global = -4.45671e-10, cumulative = -2.50534e-06
DICPCG:  Solving for p, Initial residual = 0.00045696, Final residual = 1.86733e-05, No Iterations 3
DICPCG:  Solving for p, Initial residual = 5.65746e-05, Final residual = 2.68361e-06, No Iterations 41
DICPCG:  Solving for p, Initial residual = 1.46641e-05, Final residual = 8.63598e-07, No Iterations 10
time step continuity errors : sum local = 1.70838e-09, global = -8.10033e-11, cumulative = -2.50542e-06
ExecutionTime = 0.8 s  ClockTime = 1 s

Time = 9.4

Courant Number mean: 0.297388 max: 0.994266
smoothSolver:  Solving for Ux, Initial residual = 0.000162813, Final residual = 3.08328e-06, No Iterations 1
smoothSolver:  Solving for Uy, Initial residual = 0.000190857, Final residual = 3.04952e-06, No Iterations 1
DICPCG:  Solving for p, Initial residual = 0.00347372, Final residual = 0.000119315, No Iterations 3
DICPCG:  Solving for p, Initial residual = 0.000341498, Final residual = 1.64355e-05, No Iterations 14
DICPCG:  Solving for p, Initial residual = 7.99864e-05, Final residual = 3.71167e-06, No Iterations 13
time step continuity errors : sum local = 7.33796e-09, global = 9.73784e-10, cumulative = -2.50444e-06
DICPCG:  Solving for p, Initial residual = 0.00045624, Final residual = 2.03514e-05, No Iterations 3
DICPCG:  Solving for p, Initial residual = 5.6078e-05, Final residual = 2.61456e-06, No Iterations 14
DICPCG:  Solving for p, Initial residual = 1.35908e-05, Final residual = 9.2369e-07, No Iterations 9
time step continuity errors : sum local = 1.82627e-09, global = 6.97195e-11, cumulative = -2.50437e-06
ExecutionTime = 0.8 s  ClockTime = 1 s

Time = 9.45

Courant Number mean: 0.297383 max: 0.994006
smoothSolver:  Solving for Ux, Initial residual = 0.000161519, Final residual = 3.02912e-06, No Iterations 1
smoothSolver:  Solving for Uy, Initial residual = 0.000192029, Final residual = 3.05244e-06, No Iterations 1
DICPCG:  Solving for p, Initial residual = 0.00434684, Final residual = 0.000154807, No Iterations 4
DICPCG:  Solving for p, Initial residual = 0.000470423, Final residual = 2.33524e-05, No Iterations 12
DICPCG:  Solving for p, Initial residual = 9.88718e-05, Final residual = 4.32506e-06, No Iterations 50
time step continuity errors : sum local = 8.55176e-09, global = -8.5624e-11, cumulative = -2.50446e-06
DICPCG:  Solving for p, Initial residual = 0.000631007, Final residual = 3.14223e-05, No Iterations 5
DICPCG:  Solving for p, Initial residual = 9.95846e-05, Final residual = 4.46291e-06, No Iterations 8
DICPCG:  Solving for p, Initial residual = 1.96963e-05, Final residual = 9.19577e-07, No Iterations 41
time step continuity errors : sum local = 1.81882e-09, global = 2.30519e-11, cumulative = -2.50444e-06
ExecutionTime = 0.8 s  ClockTime = 1 s

Time = 9.5

Courant Number mean: 0.297378 max: 0.993693
smoothSolver:  Solving for Ux, Initial residual = 0.000160078, Final residual = 3.07891e-06, No Iterations 1
smoothSolver:  Solving for Uy, Initial residual = 0.000187396, Final residual = 3.16332e-06, No Iterations 1
DICPCG:  Solving for p, Initial residual = 0.00402199, Final residual = 0.000145688, No Iterations 4
DICPCG:  Solving for p, Initial residual = 0.000451537, Final residual = 2.00195e-05, No Iterations 18
DICPCG:  Solving for p, Initial residual = 0.000119657, Final residual = 5.89351e-06, No Iterations 44
time step continuity errors : sum local = 1.16461e-08, global = -1.02603e-10, cumulative = -2.50454e-06
DICPCG:  Solving for p, Initial residual = 0.000648551, Final residual = 2.32325e-05, No Iterations 5
DICPCG:  Solving for p, Initial residual = 9.53121e-05, Final residual = 4.7563e-06, No Iterations 15
DICPCG:  Solving for p, Initial residual = 2.22913e-05, Final residual = 7.22755e-07, No Iterations 49
time step continuity errors : sum local = 1.42767e-09, global = 8.30593e-11, cumulative = -2.50446e-06
ExecutionTime = 0.81 s  ClockTime = 1 s

Time = 9.55

Courant Number mean: 0.297374 max: 0.993417
smoothSolver:  Solving for Ux, Initial residual = 0.000156044, Final residual = 2.93341e-06, No Iterations 1
smoothSolver:  Solving for Uy, Initial residual = 0.000182074, Final residual = 2.94802e-06, No Iterations 1
DICPCG:  Solving for p, Initial residual = 0.00298296, Final residual = 0.000115651, No Iterations 3
DICPCG:  Solving for p, Initial residual = 0.00030819, Final residual = 1.37284e-05, No Iterations 15
DICPCG:  Solving for p, Initial residual = 7.6443e-05, Final residual = 3.76938e-06, No Iterations 49
time step continuity errors : sum local = 7.44291e-09, global = -3.5741e-10, cumulative = -2.50481e-06
DICPCG:  Solving for p, Initial residual = 0.000386118, Final residual = 1.61773e-05, No Iterations 3
DICPCG:  Solving for p, Initial residual = 4.67012e-05, Final residual = 2.03831e-06, No Iterations 14
DICPCG:  Solving for p, Initial residual = 1.04098e-05, Final residual = 8.06811e-07, No Iterations 44
time step continuity errors : sum local = 1.59289e-09, global = -2.10581e-11, cumulative = -2.50484e-06
ExecutionTime = 0.81 s  ClockTime = 1 s

Time = 9.6

Courant Number mean: 0.297369 max: 0.993168
smoothSolver:  Solving for Ux, Initial residual = 0.000149723, Final residual = 2.76446e-06, No Iterations 1
smoothSolver:  Solving for Uy, Initial residual = 0.000180963, Final residual = 2.95363e-06, No Iterations 1
DICPCG:  Solving for p, Initial residual = 0.00323529, Final residual = 0.0001211, No Iterations 3
DICPCG:  Solving for p, Initial residual = 0.000311351, Final residual = 1.38829e-05, No Iterations 15
DICPCG:  Solving for p, Initial residual = 7.54759e-05, Final residual = 3.62313e-06, No Iterations 17
time step continuity errors : sum local = 7.15629e-09, global = 1.62958e-09, cumulative = -2.50321e-06
DICPCG:  Solving for p, Initial residual = 0.000447822, Final residual = 1.82102e-05, No Iterations 4
DICPCG:  Solving for p, Initial residual = 5.69047e-05, Final residual = 2.53619e-06, No Iterations 38
DICPCG:  Solving for p, Initial residual = 1.86501e-05, Final residual = 9.38297e-07, No Iterations 17
time step continuity errors : sum local = 1.85299e-09, global = 1.54343e-12, cumulative = -2.5032e-06
ExecutionTime = 0.82 s  ClockTime = 1 s

Time = 9.65

Courant Number mean: 0.297364 max: 0.992908
smoothSolver:  Solving for Ux, Initial residual = 0.000143659, Final residual = 2.59865e-06, No Iterations 1
smoothSolver:  Solving for Uy, Initial residual = 0.000180119, Final residual = 2.92856e-06, No Iterations 1
DICPCG:  Solving for p, Initial residual = 0.00322452, Final residual = 0.000131686, No Iterations 4
DICPCG:  Solving for p, Initial residual = 0.000387999, Final residual = 1.44794e-05, No Iterations 11
DICPCG:  Solving for p, Initial residual = 7.48608e-05, Final residual = 3.74187e-06, No Iterations 53
time step continuity errors : sum local = 7.39477e-09, global = -2.57294e-10, cumulative = -2.50346e-06
DICPCG:  Solving for p, Initial residual = 0.000542047, Final residual = 2.38383e-05, No Iterations 6
DICPCG:  Solving for p, Initial residual = 9.19409e-05, Final residual = 4.58566e-06, No Iterations 11
DICPCG:  Solving for p, Initial residual = 1.94489e-05, Final residual = 9.52475e-07, No Iterations 14
time step continuity errors : sum local = 1.88256e-09, global = 4.57321e-10, cumulative = -2.503e-06
ExecutionTime = 0.82 s  ClockTime = 1 s

Time = 9.7

Courant Number mean: 0.297359 max: 0.992604
smoothSolver:  Solving for Ux, Initial residual = 0.000142814, Final residual = 2.57229e-06, No Iterations 1
smoothSolver:  Solving for Uy, Initial residual = 0.00017692, Final residual = 2.99466e-06, No Iterations 1
DICPCG:  Solving for p, Initial residual = 0.00335019, Final residual = 0.000140487, No Iterations 4
DICPCG:  Solving for p, Initial residual = 0.000419727, Final residual = 2.02969e-05, No Iterations 18
DICPCG:  Solving for p, Initial residual = 0.00011204, Final residual = 5.38078e-06, No Iterations 45
time step continuity errors : sum local = 1.06433e-08, global = 1.26552e-11, cumulative = -2.50299e-06
DICPCG:  Solving for p, Initial residual = 0.000569579, Final residual = 2.16713e-05, No Iterations 5
DICPCG:  Solving for p, Initial residual = 8.7162e-05, Final residual = 4.3557e-06, No Iterations 11
DICPCG:  Solving for p, Initial residual = 1.70556e-05, Final residual = 8.96041e-07, No Iterations 25
time step continuity errors : sum local = 1.7716e-09, global = -3.47334e-10, cumulative = -2.50334e-06
ExecutionTime = 0.82 s  ClockTime = 1 s

Time = 9.75

Courant Number mean: 0.297355 max: 0.992338
smoothSolver:  Solving for Ux, Initial residual = 0.000140035, Final residual = 2.39497e-06, No Iterations 1
smoothSolver:  Solving for Uy, Initial residual = 0.000172457, Final residual = 2.73723e-06, No Iterations 1
DICPCG:  Solving for p, Initial residual = 0.00262596, Final residual = 8.73951e-05, No Iterations 3
DICPCG:  Solving for p, Initial residual = 0.000282514, Final residual = 1.3608e-05, No Iterations 14
DICPCG:  Solving for p, Initial residual = 6.9802e-05, Final residual = 3.46097e-06, No Iterations 24
time step continuity errors : sum local = 6.85622e-09, global = 1.13156e-09, cumulative = -2.50221e-06
DICPCG:  Solving for p, Initial residual = 0.000334304, Final residual = 1.12476e-05, No Iterations 3
DICPCG:  Solving for p, Initial residual = 3.96133e-05, Final residual = 1.89994e-06, No Iterations 19
DICPCG:  Solving for p, Initial residual = 9.48026e-06, Final residual = 8.05694e-07, No Iterations 42
time step continuity errors : sum local = 1.5961e-09, global = 7.13964e-12, cumulative = -2.5022e-06
ExecutionTime = 0.83 s  ClockTime = 1 s

Time = 9.8

Courant Number mean: 0.29735 max: 0.992099
smoothSolver:  Solving for Ux, Initial residual = 0.000138097, Final residual = 2.32673e-06, No Iterations 1
smoothSolver:  Solving for Uy, Initial residual = 0.000168584, Final residual = 2.70554e-06, No Iterations 1
DICPCG:  Solving for p, Initial residual = 0.00229662, Final residual = 7.95426e-05, No Iterations 4
DICPCG:  Solving for p, Initial residual = 0.000250573, Final residual = 1.09237e-05, No Iterations 18
DICPCG:  Solving for p, Initial residual = 4.94739e-05, Final residual = 2.43027e-06, No Iterations 21
time step continuity errors : sum local = 4.81614e-09, global = -2.53992e-10, cumulative = -2.50245e-06
DICPCG:  Solving for p, Initial residual = 0.000333535, Final residual = 1.31884e-05, No Iterations 5
DICPCG:  Solving for p, Initial residual = 4.67697e-05, Final residual = 2.21079e-06, No Iterations 16
DICPCG:  Solving for p, Initial residual = 1.05548e-05, Final residual = 9.58527e-07, No Iterations 39
time step continuity errors : sum local = 1.89964e-09, global = -2.91317e-11, cumulative = -2.50248e-06
ExecutionTime = 0.84 s  ClockTime = 1 s

Time = 9.85

Courant Number mean: 0.297346 max: 0.991845
smoothSolver:  Solving for Ux, Initial residual = 0.000134075, Final residual = 2.28306e-06, No Iterations 1
smoothSolver:  Solving for Uy, Initial residual = 0.00016425, Final residual = 2.63089e-06, No Iterations 1
DICPCG:  Solving for p, Initial residual = 0.00228501, Final residual = 9.98261e-05, No Iterations 3
DICPCG:  Solving for p, Initial residual = 0.000235104, Final residual = 1.07107e-05, No Iterations 16
DICPCG:  Solving for p, Initial residual = 5.45051e-05, Final residual = 2.4913e-06, No Iterations 24
time step continuity errors : sum local = 4.9402e-09, global = -8.74294e-10, cumulative = -2.50336e-06
DICPCG:  Solving for p, Initial residual = 0.000310087, Final residual = 1.2578e-05, No Iterations 5
DICPCG:  Solving for p, Initial residual = 4.37979e-05, Final residual = 2.15078e-06, No Iterations 17
DICPCG:  Solving for p, Initial residual = 9.13972e-06, Final residual = 9.52818e-07, No Iterations 40
time step continuity errors : sum local = 1.88956e-09, global = -2.68757e-11, cumulative = -2.50338e-06
ExecutionTime = 0.84 s  ClockTime = 1 s

Time = 9.9

Courant Number mean: 0.297341 max: 0.991583
smoothSolver:  Solving for Ux, Initial residual = 0.000131637, Final residual = 2.22453e-06, No Iterations 1
smoothSolver:  Solving for Uy, Initial residual = 0.000160984, Final residual = 2.61556e-06, No Iterations 1
DICPCG:  Solving for p, Initial residual = 0.0025033, Final residual = 0.000114217, No Iterations 3
DICPCG:  Solving for p, Initial residual = 0.000283213, Final residual = 1.30922e-05, No Iterations 19
DICPCG:  Solving for p, Initial residual = 7.59462e-05, Final residual = 3.75544e-06, No Iterations 13
time step continuity errors : sum local = 7.44943e-09, global = 1.77095e-09, cumulative = -2.50161e-06
DICPCG:  Solving for p, Initial residual = 0.000375042, Final residual = 1.43387e-05, No Iterations 4
DICPCG:  Solving for p, Initial residual = 5.18514e-05, Final residual = 2.55095e-06, No Iterations 16
DICPCG:  Solving for p, Initial residual = 1.16652e-05, Final residual = 7.52095e-07, No Iterations 47
time step continuity errors : sum local = 1.4919e-09, global = 6.46293e-11, cumulative = -2.50155e-06
ExecutionTime = 0.85 s  ClockTime = 1 s

Time = 9.95

Courant Number mean: 0.297337 max: 0.991341
smoothSolver:  Solving for Ux, Initial residual = 0.000128666, Final residual = 2.13385e-06, No Iterations 1
smoothSolver:  Solving for Uy, Initial residual = 0.000158521, Final residual = 2.62091e-06, No Iterations 1
DICPCG:  Solving for p, Initial residual = 0.0027973, Final residual = 0.000138514, No Iterations 4
DICPCG:  Solving for p, Initial residual = 0.000363822, Final residual = 1.81656e-05, No Iterations 15
DICPCG:  Solving for p, Initial residual = 7.79389e-05, Final residual = 3.01874e-06, No Iterations 49
time step continuity errors : sum local = 5.99127e-09, global = 3.49045e-10, cumulative = -2.5012e-06
DICPCG:  Solving for p, Initial residual = 0.000482591, Final residual = 2.14926e-05, No Iterations 6
DICPCG:  Solving for p, Initial residual = 8.57586e-05, Final residual = 3.66974e-06, No Iterations 8
DICPCG:  Solving for p, Initial residual = 1.69896e-05, Final residual = 9.6983e-07, No Iterations 13
time step continuity errors : sum local = 1.92549e-09, global = 1.72364e-10, cumulative = -2.50103e-06
ExecutionTime = 0.85 s  ClockTime = 1 s

Time = 10

Courant Number mean: 0.297333 max: 0.991057
smoothSolver:  Solving for Ux, Initial residual = 0.000127053, Final residual = 2.15566e-06, No Iterations 1
smoothSolver:  Solving for Uy, Initial residual = 0.00015607, Final residual = 2.7652e-06, No Iterations 1
DICPCG:  Solving for p, Initial residual = 0.00291761, Final residual = 0.000134673, No Iterations 4
DICPCG:  Solving for p, Initial residual = 0.000372719, Final residual = 1.77897e-05, No Iterations 19
DICPCG:  Solving for p, Initial residual = 0.000109023, Final residual = 5.27477e-06, No Iterations 45
time step continuity errors : sum local = 1.04708e-08, global = 9.66017e-11, cumulative = -2.50093e-06
DICPCG:  Solving for p, Initial residual = 0.000514463, Final residual = 2.09404e-05, No Iterations 5
DICPCG:  Solving for p, Initial residual = 8.35646e-05, Final residual = 4.11338e-06, No Iterations 14
DICPCG:  Solving for p, Initial residual = 1.88337e-05, Final residual = 9.8429e-07, No Iterations 20
time step continuity errors : sum local = 1.95345e-09, global = -5.17923e-10, cumulative = -2.50145e-06
ExecutionTime = 0.86 s  ClockTime = 1 s

End

